data_al2001
_audit_creation_date               2020-01-31
_audit_creation_method
;
Olex2 1.2
(compiled 2018.05.29 svn.r3508 for OlexSys, GUI svn.r5506)
;
_shelxl_version_number             2014/6
_audit_contact_author_address      ?
_audit_contact_author_email        ?
_audit_contact_author_name         ''
_audit_contact_author_phone        ?
_publ_contact_author_id_orcid      ?
_publ_section_references
;
Dolomanov, O.V., Bourhis, L.J., Gildea, R.J, Howard, J.A.K. & Puschmann, H.
 (2009), J. Appl. Cryst. 42, 339-341.

Sheldrick, G.M. (2008). Acta Cryst. A64, 112-122.

Sheldrick, G.M. (2015). Acta Cryst. A71, 3-8.
;
_chemical_name_common              ?
_chemical_name_systematic          ?
_chemical_formula_moiety           'C24 H22 F3 N O3'
_chemical_formula_sum              'C24 H22 F3 N O3'
_chemical_formula_weight           429.42
_chemical_melting_point            ?
loop_
  _atom_type_symbol
  _atom_type_description
  _atom_type_scat_dispersion_real
  _atom_type_scat_dispersion_imag
  _atom_type_scat_source
 'C' 'C' 0.0033 0.0016 'International Tables Vol C Tables 4.2.6.8 and 6.1.1.4'
 'H' 'H' 0.0000 0.0000 'International Tables Vol C Tables 4.2.6.8 and 6.1.1.4'
 'F' 'F' 0.0171 0.0103 'International Tables Vol C Tables 4.2.6.8 and 6.1.1.4'
 'N' 'N' 0.0061 0.0033 'International Tables Vol C Tables 4.2.6.8 and 6.1.1.4'
 'O' 'O' 0.0106 0.0060 'International Tables Vol C Tables 4.2.6.8 and 6.1.1.4'

_shelx_space_group_comment
;
The symmetry employed for this shelxl refinement is uniquely defined
by the following loop, which should always be used as a source of
symmetry information in preference to the above space-group names.
They are only intended as comments.
;
_space_group_crystal_system        'monoclinic'
_space_group_IT_number             14
_space_group_name_H-M_alt          'P 1 21/c 1'
_space_group_name_Hall             '-P 2ybc'
loop_
  _space_group_symop_operation_xyz
 'x, y, z'
 '-x, y+1/2, -z+1/2'
 '-x, -y, -z'
 'x, -y-1/2, z-1/2'

_cell_length_a                     13.9693(14)
_cell_length_b                     16.7422(15)
_cell_length_c                     9.3739(8)
_cell_angle_alpha                  90
_cell_angle_beta                   103.524(2)
_cell_angle_gamma                  90
_cell_volume                       2131.5(3)
_cell_formula_units_Z              4
_cell_measurement_reflns_used      2235
_cell_measurement_temperature      120
_cell_measurement_theta_max        24.73
_cell_measurement_theta_min        2.54
_shelx_estimated_absorpt_T_max     0.984
_shelx_estimated_absorpt_T_min     0.969
_exptl_absorpt_coefficient_mu      0.105
_exptl_absorpt_correction_T_max    0.7461
_exptl_absorpt_correction_T_min    0.6438
_exptl_absorpt_correction_type     multi-scan
_exptl_absorpt_process_details
;
SADABS-2008/1 (Bruker,2008) was used for absorption correction.
wR2(int) was 0.0832 before and 0.0523 after correction.
The Ratio of minimum to maximum transmission is 0.8629.
The \l/2 correction factor is 0.0015.
;
_exptl_absorpt_special_details     ?
_exptl_crystal_colour              orange
_exptl_crystal_colour_primary      orange
_exptl_crystal_density_diffrn      1.338
_exptl_crystal_density_meas        .
_exptl_crystal_density_method      ?
_exptl_crystal_description         plate
_exptl_crystal_F_000               896
_exptl_crystal_size_max            0.3
_exptl_crystal_size_mid            0.3
_exptl_crystal_size_min            0.15
_exptl_transmission_factor_max     ?
_exptl_transmission_factor_min     ?
_diffrn_reflns_av_R_equivalents    0.0624
_diffrn_reflns_av_unetI/netI       0.0758
_diffrn_reflns_Laue_measured_fraction_full  1.000
_diffrn_reflns_Laue_measured_fraction_max  0.998
_diffrn_reflns_limit_h_max         19
_diffrn_reflns_limit_h_min         -19
_diffrn_reflns_limit_k_max         22
_diffrn_reflns_limit_k_min         -23
_diffrn_reflns_limit_l_max         13
_diffrn_reflns_limit_l_min         -12
_diffrn_reflns_number              19309
_diffrn_reflns_point_group_measured_fraction_full  1.000
_diffrn_reflns_point_group_measured_fraction_max  0.998
_diffrn_reflns_theta_full          25.242
_diffrn_reflns_theta_max           30.542
_diffrn_reflns_theta_min           1.931
_diffrn_ambient_temperature        120.0
_diffrn_detector_area_resol_mean   ?
_diffrn_measured_fraction_theta_full  1.000
_diffrn_measured_fraction_theta_max  0.998
_diffrn_measurement_device_type    'Bruker APEX-II CCD'
_diffrn_measurement_method         '\f and \w scans'
_diffrn_radiation_monochromator    'graphite'
_diffrn_radiation_type             MoK\a
_diffrn_radiation_wavelength       0.71073
_diffrn_source                     ?
_diffrn_standards_number           0
_reflns_Friedel_coverage           0.000
_reflns_Friedel_fraction_full      .
_reflns_Friedel_fraction_max       .
_reflns_number_gt                  3852
_reflns_number_total               6507
_reflns_special_details
;
 Reflections were merged by SHELXL according to the crystal
 class for the calculation of statistics and refinement.
 
 _reflns_Friedel_fraction is defined as the number of unique
 Friedel pairs measured divided by the number that would be
 possible theoretically, ignoring centric projections and
 systematic absences.
;
_reflns_threshold_expression       'I > 2\s(I)'
_computing_cell_refinement         ?
_computing_data_collection         ?
_computing_data_reduction          ?
_computing_molecular_graphics      'Olex2 (Dolomanov et al., 2009)'
_computing_publication_material    'Olex2 (Dolomanov et al., 2009)'
_computing_structure_refinement    'XL (Sheldrick, 2008)'
_computing_structure_solution      'ShelXT (Sheldrick, 2015)'
_refine_diff_density_max           0.317
_refine_diff_density_min           -0.280
_refine_diff_density_rms           0.058
_refine_ls_extinction_coef         .
_refine_ls_extinction_method       none
_refine_ls_goodness_of_fit_ref     1.011
_refine_ls_hydrogen_treatment      constr
_refine_ls_matrix_type             full
_refine_ls_number_parameters       310
_refine_ls_number_reflns           6507
_refine_ls_number_restraints       6
_refine_ls_R_factor_all            0.1064
_refine_ls_R_factor_gt             0.0542
_refine_ls_restrained_S_all        1.013
_refine_ls_shift/su_max            0.000
_refine_ls_shift/su_mean           0.000
_refine_ls_structure_factor_coef   Fsqd
_refine_ls_weighting_details      
 'w=1/[\s^2^(Fo^2^)+(0.0553P)^2^+0.0698P] where P=(Fo^2^+2Fc^2^)/3'
_refine_ls_weighting_scheme        calc
_refine_ls_wR_factor_gt            0.1147
_refine_ls_wR_factor_ref           0.1376
_refine_special_details            ?
_olex2_refinement_description
;
1. Fixed Uiso
 At 1.2 times of:
  All C(H) groups, All C(H,H) groups, All N(H) groups, All O(H) groups
 At 1.5 times of:
  All C(H,H,H) groups
2. Uiso/Uaniso restraints and constraints
Uanis(F1') \\sim Ueq: with sigma of 0.005 and sigma for terminal atoms of 0.01
3. Others
 Sof(F1)=Sof(F2)=Sof(F3)=1-FVAR(1)
 Sof(F1')=Sof(F2')=Sof(F3')=FVAR(1)
4.a Riding coordinates:
 O1(H1), N1(H1A)
4.b Secondary CH2 refined with riding coordinates:
 C11(H11A,H11B), C13(H13A,H13B), C17(H17A,H17B)
4.c Aromatic/amide H refined with riding coordinates:
 C4(H4), C5(H5), C6(H6), C7(H7), C19(H19), C20(H20), C22(H22), C23(H23)
4.d Idealised Me refined as rotating group:
 C15(H15A,H15B,H15C), C16(H16A,H16B,H16C)
;
_atom_sites_solution_hydrogens     mixed
_atom_sites_solution_primary       dual
_atom_sites_solution_secondary     ?
loop_
  _atom_site_label
  _atom_site_type_symbol
  _atom_site_fract_x
  _atom_site_fract_y
  _atom_site_fract_z
  _atom_site_U_iso_or_equiv
  _atom_site_adp_type
  _atom_site_occupancy
  _atom_site_site_symmetry_order
  _atom_site_calc_flag
  _atom_site_refinement_flags_posn
  _atom_site_refinement_flags_adp
  _atom_site_refinement_flags_occupancy
  _atom_site_disorder_assembly
  _atom_site_disorder_group
 O1 O 0.47187(8) 0.30546(6) 0.90559(12) 0.0211(3) Uani 1 1 d . . . . .
 H1 H 0.5148 0.2778 0.8789 0.025 Uiso 1 1 d R . . . .
 O2 O 0.61712(8) 0.53255(7) 0.63044(13) 0.0244(3) Uani 1 1 d . . . . .
 O3 O 0.59825(8) 0.25917(7) 0.75244(13) 0.0243(3) Uani 1 1 d . . . . .
 N1 N 0.48996(9) 0.49285(8) 0.77443(14) 0.0186(3) Uani 1 1 d . . . . .
 H1A H 0.5224 0.5341 0.7514 0.022 Uiso 1 1 d R . . . .
 C1 C 0.51365(11) 0.41736(9) 0.75404(17) 0.0168(3) Uani 1 1 d . . . . .
 C2 C 0.43410(11) 0.36316(9) 0.79674(17) 0.0171(3) Uani 1 1 d . . . . .
 C3 C 0.37303(11) 0.42375(10) 0.85596(17) 0.0179(3) Uani 1 1 d . . . . .
 C4 C 0.29334(12) 0.41466(11) 0.91922(18) 0.0238(4) Uani 1 1 d . . . . .
 H4 H 0.2698 0.3631 0.9359 0.029 Uiso 1 1 calc R . . . .
 C5 C 0.24854(14) 0.48351(11) 0.9578(2) 0.0283(4) Uani 1 1 d . . . . .
 H5 H 0.1933 0.4786 1.0000 0.034 Uiso 1 1 calc R . . . .
 C6 C 0.28363(13) 0.55922(11) 0.93522(19) 0.0255(4) Uani 1 1 d . . . . .
 H6 H 0.2515 0.6050 0.9618 0.031 Uiso 1 1 calc R . . . .
 C7 C 0.36485(12) 0.56925(10) 0.87457(18) 0.0217(4) Uani 1 1 d . . . . .
 H7 H 0.3897 0.6206 0.8598 0.026 Uiso 1 1 calc R . . . .
 C8 C 0.40725(11) 0.49996(10) 0.83703(17) 0.0181(3) Uani 1 1 d . . . . .
 C9 C 0.59163(11) 0.39717(9) 0.68828(17) 0.0178(3) Uani 1 1 d . . . . .
 C10 C 0.63791(11) 0.46045(10) 0.62193(18) 0.0202(3) Uani 1 1 d . . . . .
 C11 C 0.71183(13) 0.43872(11) 0.5338(2) 0.0270(4) Uani 1 1 d . . . . .
 H11A H 0.7562 0.4849 0.5343 0.032 Uiso 1 1 calc R . . . .
 H11B H 0.6761 0.4294 0.4309 0.032 Uiso 1 1 calc R . . . .
 C12 C 0.77453(12) 0.36518(10) 0.58834(18) 0.0222(4) Uani 1 1 d . . . . .
 C13 C 0.70413(12) 0.29718(10) 0.60114(19) 0.0232(4) Uani 1 1 d . . . . .
 H13A H 0.6697 0.2806 0.5009 0.028 Uiso 1 1 calc R . . . .
 H13B H 0.7437 0.2511 0.6480 0.028 Uiso 1 1 calc R . . . .
 C14 C 0.62722(11) 0.31561(10) 0.68714(18) 0.0195(3) Uani 1 1 d . . . . .
 C15 C 0.83365(13) 0.34259(12) 0.4754(2) 0.0306(4) Uani 1 1 d . . . . .
 H15A H 0.8702 0.2931 0.5060 0.046 Uiso 1 1 calc GR . . . .
 H15B H 0.8800 0.3856 0.4686 0.046 Uiso 1 1 calc GR . . . .
 H15C H 0.7885 0.3346 0.3793 0.046 Uiso 1 1 calc GR . . . .
 C16 C 0.84483(13) 0.38202(12) 0.7373(2) 0.0306(4) Uani 1 1 d . . . . .
 H16A H 0.8066 0.3957 0.8092 0.046 Uiso 1 1 calc GR . . . .
 H16B H 0.8882 0.4267 0.7275 0.046 Uiso 1 1 calc GR . . . .
 H16C H 0.8846 0.3344 0.7703 0.046 Uiso 1 1 calc GR . . . .
 C17 C 0.37529(11) 0.32542(10) 0.65052(17) 0.0185(3) Uani 1 1 d . . . . .
 H17A H 0.3537 0.3685 0.5778 0.022 Uiso 1 1 calc R . . . .
 H17B H 0.4196 0.2896 0.6117 0.022 Uiso 1 1 calc R . . . .
 C18 C 0.28615(11) 0.27852(10) 0.66661(17) 0.0178(3) Uani 1 1 d . . . . .
 C19 C 0.29564(11) 0.20272(10) 0.73030(18) 0.0205(3) Uani 1 1 d . . . . .
 H19 H 0.3594 0.1807 0.7662 0.025 Uiso 1 1 calc R . . . .
 C20 C 0.21352(12) 0.15908(10) 0.74201(19) 0.0224(4) Uani 1 1 d . . . . .
 H20 H 0.2214 0.1075 0.7856 0.027 Uiso 1 1 calc R . . . .
 C21 C 0.11963(12) 0.19041(10) 0.69023(19) 0.0229(4) Uani 1 1 d . . . . .
 C22 C 0.10875(13) 0.26589(11) 0.6274(2) 0.0316(4) Uani 1 1 d . . . . .
 H22 H 0.0449 0.2878 0.5921 0.038 Uiso 1 1 calc R . . . .
 C23 C 0.19133(12) 0.30943(11) 0.6161(2) 0.0277(4) Uani 1 1 d . . . . .
 H23 H 0.1832 0.3611 0.5732 0.033 Uiso 1 1 calc R . . . .
 C24 C 0.03150(13) 0.14119(13) 0.6973(2) 0.0331(5) Uani 1 1 d . . . . .
 F1' F -0.0211(12) 0.1272(17) 0.5753(12) 0.057(4) Uani 0.25(2) 1 d . U P A 1
 F2' F 0.0466(13) 0.0844(13) 0.787(3) 0.068(6) Uani 0.25(2) 1 d . . P A 1
 F3' F -0.0308(13) 0.1952(11) 0.753(2) 0.055(4) Uani 0.25(2) 1 d . . P A 1
 F1 F 0.0077(5) 0.0877(6) 0.5828(5) 0.0672(18) Uani 0.75(2) 1 d . . P A 2
 F2 F 0.0469(5) 0.0937(4) 0.8153(7) 0.0465(12) Uani 0.75(2) 1 d . . P A 2
 F3 F -0.0494(4) 0.1813(4) 0.6946(13) 0.071(2) Uani 0.75(2) 1 d . . P A 2

loop_
  _atom_site_aniso_label
  _atom_site_aniso_U_11
  _atom_site_aniso_U_22
  _atom_site_aniso_U_33
  _atom_site_aniso_U_23
  _atom_site_aniso_U_13
  _atom_site_aniso_U_12
 O1 0.0264(6) 0.0174(6) 0.0184(6) 0.0050(5) 0.0034(5) 0.0021(5)
 O2 0.0281(6) 0.0167(6) 0.0301(7) 0.0029(5) 0.0101(5) -0.0006(5)
 O3 0.0273(6) 0.0176(6) 0.0284(7) 0.0029(5) 0.0071(5) 0.0014(5)
 N1 0.0207(6) 0.0138(7) 0.0210(7) 0.0005(6) 0.0045(5) -0.0015(5)
 C1 0.0185(7) 0.0156(8) 0.0145(8) 0.0006(6) 0.0002(6) -0.0010(6)
 C2 0.0205(7) 0.0156(8) 0.0150(8) 0.0009(7) 0.0035(6) 0.0003(6)
 C3 0.0218(8) 0.0181(8) 0.0138(8) 0.0006(7) 0.0039(6) 0.0012(6)
 C4 0.0294(9) 0.0218(9) 0.0221(9) 0.0019(7) 0.0102(7) -0.0013(7)
 C5 0.0326(9) 0.0292(10) 0.0271(10) -0.0018(8) 0.0149(8) 0.0015(8)
 C6 0.0335(9) 0.0237(9) 0.0212(9) -0.0025(7) 0.0102(7) 0.0065(7)
 C7 0.0287(9) 0.0175(8) 0.0185(9) -0.0013(7) 0.0047(7) 0.0014(7)
 C8 0.0209(7) 0.0192(8) 0.0132(8) 0.0003(7) 0.0022(6) 0.0014(6)
 C9 0.0190(7) 0.0161(8) 0.0171(8) -0.0005(7) 0.0023(6) -0.0008(6)
 C10 0.0196(8) 0.0216(9) 0.0184(9) 0.0014(7) 0.0025(6) 0.0003(6)
 C11 0.0298(9) 0.0265(10) 0.0273(10) 0.0068(8) 0.0121(7) 0.0051(7)
 C12 0.0208(8) 0.0254(9) 0.0204(9) -0.0001(7) 0.0052(6) 0.0004(7)
 C13 0.0221(8) 0.0218(9) 0.0260(9) -0.0034(7) 0.0061(7) 0.0027(7)
 C14 0.0185(7) 0.0199(8) 0.0178(8) 0.0000(7) -0.0003(6) 0.0008(6)
 C15 0.0282(9) 0.0374(11) 0.0287(10) -0.0009(9) 0.0115(8) 0.0056(8)
 C16 0.0236(8) 0.0390(11) 0.0280(10) -0.0065(9) 0.0035(7) -0.0032(8)
 C17 0.0212(7) 0.0179(8) 0.0163(8) 0.0008(7) 0.0043(6) -0.0012(6)
 C18 0.0207(7) 0.0186(8) 0.0136(8) -0.0036(6) 0.0031(6) -0.0014(6)
 C19 0.0194(7) 0.0187(8) 0.0234(9) -0.0011(7) 0.0048(6) 0.0016(6)
 C20 0.0236(8) 0.0182(8) 0.0257(9) 0.0014(7) 0.0065(7) -0.0010(6)
 C21 0.0212(8) 0.0256(9) 0.0227(9) 0.0010(8) 0.0065(7) -0.0020(7)
 C22 0.0183(8) 0.0343(11) 0.0399(12) 0.0111(9) 0.0025(7) 0.0020(7)
 C23 0.0237(8) 0.0263(10) 0.0311(10) 0.0106(8) 0.0021(7) 0.0010(7)
 C24 0.0219(9) 0.0399(12) 0.0370(12) 0.0076(10) 0.0058(8) -0.0039(8)
 F1' 0.050(5) 0.078(8) 0.041(4) -0.016(5) 0.007(3) -0.045(5)
 F2' 0.030(5) 0.027(5) 0.133(15) 0.045(9) -0.009(7) -0.002(4)
 F3' 0.033(6) 0.057(6) 0.089(9) 0.002(6) 0.044(6) -0.009(4)
 F1 0.067(2) 0.083(4) 0.0574(16) -0.032(2) 0.0256(15) -0.054(3)
 F2 0.0400(17) 0.055(3) 0.0440(19) 0.0171(14) 0.0088(11) -0.0210(15)
 F3 0.0255(14) 0.047(2) 0.146(6) 0.034(3) 0.028(2) 0.0043(13)

_geom_special_details
;
 All esds (except the esd in the dihedral angle between two l.s. planes)
 are estimated using the full covariance matrix.  The cell esds are taken
 into account individually in the estimation of esds in distances, angles
 and torsion angles; correlations between esds in cell parameters are only
 used when they are defined by crystal symmetry.  An approximate (isotropic)
 treatment of cell esds is used for estimating esds involving l.s. planes.
;
loop_
  _geom_bond_atom_site_label_1
  _geom_bond_atom_site_label_2
  _geom_bond_distance
  _geom_bond_site_symmetry_2
  _geom_bond_publ_flag
 O1 C2 1.4145(18) . ?
 O2 C10 1.248(2) . ?
 O3 C14 1.2438(19) . ?
 N1 C1 1.331(2) . ?
 N1 C8 1.418(2) . ?
 C1 C2 1.558(2) . ?
 C1 C9 1.412(2) . ?
 C2 C3 1.512(2) . ?
 C2 C17 1.558(2) . ?
 C3 C4 1.387(2) . ?
 C3 C8 1.388(2) . ?
 C4 C5 1.399(2) . ?
 C5 C6 1.393(3) . ?
 C6 C7 1.393(2) . ?
 C7 C8 1.385(2) . ?
 C9 C10 1.454(2) . ?
 C9 C14 1.454(2) . ?
 C10 C11 1.510(2) . ?
 C11 C12 1.528(2) . ?
 C12 C13 1.527(2) . ?
 C12 C15 1.535(2) . ?
 C12 C16 1.534(2) . ?
 C13 C14 1.518(2) . ?
 C17 C18 1.509(2) . ?
 C18 C19 1.395(2) . ?
 C18 C23 1.398(2) . ?
 C19 C20 1.386(2) . ?
 C20 C21 1.390(2) . ?
 C21 C22 1.387(2) . ?
 C21 C24 1.496(2) . ?
 C22 C23 1.390(2) . ?
 C24 F1' 1.228(10) . ?
 C24 F2' 1.257(17) . ?
 C24 F3' 1.435(16) . ?
 C24 F1 1.377(6) . ?
 C24 F2 1.339(6) . ?
 C24 F3 1.310(5) . ?

loop_
  _geom_angle_atom_site_label_1
  _geom_angle_atom_site_label_2
  _geom_angle_atom_site_label_3
  _geom_angle
  _geom_angle_site_symmetry_1
  _geom_angle_site_symmetry_3
  _geom_angle_publ_flag
 C1 N1 C8 113.15(13) . . ?
 N1 C1 C2 107.44(13) . . ?
 N1 C1 C9 122.20(14) . . ?
 C9 C1 C2 129.95(14) . . ?
 O1 C2 C1 114.52(12) . . ?
 O1 C2 C3 109.92(13) . . ?
 O1 C2 C17 112.87(13) . . ?
 C3 C2 C1 101.60(12) . . ?
 C3 C2 C17 111.62(12) . . ?
 C17 C2 C1 105.74(12) . . ?
 C4 C3 C2 131.42(15) . . ?
 C4 C3 C8 119.37(15) . . ?
 C8 C3 C2 109.20(13) . . ?
 C3 C4 C5 118.19(16) . . ?
 C6 C5 C4 121.07(17) . . ?
 C5 C6 C7 121.38(16) . . ?
 C8 C7 C6 116.13(16) . . ?
 C3 C8 N1 108.29(14) . . ?
 C7 C8 N1 127.87(15) . . ?
 C7 C8 C3 123.83(15) . . ?
 C1 C9 C10 118.53(14) . . ?
 C1 C9 C14 121.86(15) . . ?
 C14 C9 C10 119.60(14) . . ?
 O2 C10 C9 122.93(15) . . ?
 O2 C10 C11 117.85(15) . . ?
 C9 C10 C11 119.19(15) . . ?
 C10 C11 C12 115.04(14) . . ?
 C11 C12 C15 109.07(14) . . ?
 C11 C12 C16 110.56(15) . . ?
 C13 C12 C11 107.32(13) . . ?
 C13 C12 C15 109.32(14) . . ?
 C13 C12 C16 110.64(15) . . ?
 C16 C12 C15 109.88(14) . . ?
 C14 C13 C12 116.03(14) . . ?
 O3 C14 C9 123.96(15) . . ?
 O3 C14 C13 117.32(15) . . ?
 C9 C14 C13 118.72(14) . . ?
 C18 C17 C2 113.63(13) . . ?
 C19 C18 C17 121.18(14) . . ?
 C19 C18 C23 118.00(15) . . ?
 C23 C18 C17 120.81(15) . . ?
 C20 C19 C18 121.05(15) . . ?
 C19 C20 C21 120.27(16) . . ?
 C20 C21 C24 119.72(16) . . ?
 C22 C21 C20 119.51(15) . . ?
 C22 C21 C24 120.73(15) . . ?
 C21 C22 C23 119.99(16) . . ?
 C22 C23 C18 121.18(16) . . ?
 F1' C24 C21 112.6(5) . . ?
 F1' C24 F2' 116.8(12) . . ?
 F1' C24 F3' 100.1(9) . . ?
 F2' C24 C21 115.8(9) . . ?
 F2' C24 F3' 104.7(13) . . ?
 F3' C24 C21 104.1(7) . . ?
 F1 C24 C21 112.0(2) . . ?
 F2 C24 C21 112.9(3) . . ?
 F2 C24 F1 102.7(5) . . ?
 F3 C24 C21 115.6(3) . . ?
 F3 C24 F1 105.6(3) . . ?
 F3 C24 F2 106.9(4) . . ?

_shelx_res_file
;
TITL a_a.res in P2(1)/c
REM Old TITL a in P2(1)/c
REM SHELXT solution in P2(1)/c
REM R1 0.210, Rweak 0.007, Alpha 0.029, Orientation as input
REM Formula found by SHELXT: C27 O4
CELL 0.71073 13.9693 16.7422 9.3739 90 103.524 90
ZERR 4 0.0014 0.0015 0.0008 0 0.002 0
LATT 1
SYMM -X,0.5+Y,0.5-Z
SFAC C H F N O
UNIT 96 88 12 4 12
ISOR 0.005 0.01 F1'

L.S. 10
PLAN  20
SIZE 0.3 0.3 0.15
TEMP -153.15
LIST 6
fmap 2
acta
OMIT 1 0 0
REM <olex2.extras>
REM <HklSrc "%.\\a.hkl">
REM </olex2.extras>

WGHT    0.055300    0.069800
FVAR       0.38244   0.24652
O1    5    0.471870    0.305460    0.905590    11.00000    0.02644    0.01740 =
         0.01845    0.00499    0.00339    0.00209
AFIX   3
H1    2    0.514760    0.277800    0.878900    11.00000   -1.20000
AFIX   0
O2    5    0.617118    0.532546    0.630445    11.00000    0.02814    0.01665 =
         0.03011    0.00288    0.01007   -0.00064
O3    5    0.598251    0.259175    0.752439    11.00000    0.02732    0.01760 =
         0.02841    0.00294    0.00711    0.00144
N1    4    0.489962    0.492846    0.774434    11.00000    0.02072    0.01380 =
         0.02099    0.00050    0.00450   -0.00147
AFIX   3
H1A   2    0.522352    0.534116    0.751424    11.00000   -1.20000
AFIX   0
C1    1    0.513654    0.417362    0.754036    11.00000    0.01852    0.01556 =
         0.01450    0.00063    0.00024   -0.00104
C2    1    0.434099    0.363162    0.796742    11.00000    0.02049    0.01561 =
         0.01501    0.00086    0.00353    0.00031
C3    1    0.373034    0.423753    0.855963    11.00000    0.02184    0.01806 =
         0.01382    0.00064    0.00394    0.00121
C4    1    0.293344    0.414660    0.919222    11.00000    0.02943    0.02181 =
         0.02215    0.00188    0.01015   -0.00131
AFIX  43
H4    2    0.269818    0.363076    0.935936    11.00000   -1.20000
AFIX   0
C5    1    0.248539    0.483509    0.957756    11.00000    0.03256    0.02922 =
         0.02706   -0.00177    0.01489    0.00149
AFIX  43
H5    2    0.193276    0.478550    0.999986    11.00000   -1.20000
AFIX   0
C6    1    0.283633    0.559220    0.935216    11.00000    0.03350    0.02372 =
         0.02121   -0.00249    0.01019    0.00648
AFIX  43
H6    2    0.251503    0.604979    0.961760    11.00000   -1.20000
AFIX   0
C7    1    0.364854    0.569246    0.874571    11.00000    0.02872    0.01750 =
         0.01848   -0.00133    0.00473    0.00137
AFIX  43
H7    2    0.389718    0.620636    0.859819    11.00000   -1.20000
AFIX   0
C8    1    0.407254    0.499963    0.837031    11.00000    0.02089    0.01921 =
         0.01320    0.00028    0.00220    0.00138
C9    1    0.591628    0.397171    0.688284    11.00000    0.01901    0.01613 =
         0.01714   -0.00053    0.00225   -0.00081
C10   1    0.637911    0.460454    0.621927    11.00000    0.01962    0.02161 =
         0.01842    0.00136    0.00247    0.00034
C11   1    0.711834    0.438724    0.533841    11.00000    0.02979    0.02655 =
         0.02733    0.00678    0.01206    0.00513
AFIX  23
H11A  2    0.756248    0.484855    0.534340    11.00000   -1.20000
H11B  2    0.676066    0.429362    0.430885    11.00000   -1.20000
AFIX   0
C12   1    0.774530    0.365180    0.588336    11.00000    0.02085    0.02538 =
         0.02041   -0.00012    0.00518    0.00037
C13   1    0.704134    0.297176    0.601145    11.00000    0.02215    0.02180 =
         0.02597   -0.00344    0.00605    0.00269
AFIX  23
H13A  2    0.669680    0.280583    0.500913    11.00000   -1.20000
H13B  2    0.743652    0.251065    0.647973    11.00000   -1.20000
AFIX   0
C14   1    0.627216    0.315612    0.687141    11.00000    0.01853    0.01992 =
         0.01784    0.00000   -0.00026    0.00080
C15   1    0.833649    0.342592    0.475359    11.00000    0.02818    0.03737 =
         0.02872   -0.00089    0.01150    0.00557
AFIX 137
H15A  2    0.870176    0.293118    0.505999    11.00000   -1.50000
H15B  2    0.879986    0.385597    0.468648    11.00000   -1.50000
H15C  2    0.788534    0.334638    0.379294    11.00000   -1.50000
AFIX   0
C16   1    0.844834    0.382019    0.737276    11.00000    0.02360    0.03904 =
         0.02795   -0.00654    0.00347   -0.00318
AFIX 137
H16A  2    0.806616    0.395732    0.809183    11.00000   -1.50000
H16B  2    0.888177    0.426695    0.727504    11.00000   -1.50000
H16C  2    0.884636    0.334389    0.770316    11.00000   -1.50000
AFIX   0
C17   1    0.375288    0.325416    0.650516    11.00000    0.02119    0.01795 =
         0.01626    0.00079    0.00426   -0.00122
AFIX  23
H17A  2    0.353736    0.368527    0.577811    11.00000   -1.20000
H17B  2    0.419578    0.289607    0.611680    11.00000   -1.20000
AFIX   0
C18   1    0.286151    0.278520    0.666608    11.00000    0.02066    0.01856 =
         0.01359   -0.00361    0.00309   -0.00145
C19   1    0.295642    0.202724    0.730297    11.00000    0.01936    0.01871 =
         0.02341   -0.00107    0.00482    0.00161
AFIX  43
H19   2    0.359404    0.180691    0.766199    11.00000   -1.20000
AFIX   0
C20   1    0.213517    0.159078    0.742007    11.00000    0.02358    0.01824 =
         0.02571    0.00144    0.00654   -0.00101
AFIX  43
H20   2    0.221409    0.107541    0.785594    11.00000   -1.20000
AFIX   0
C21   1    0.119634    0.190409    0.690226    11.00000    0.02121    0.02563 =
         0.02270    0.00098    0.00653   -0.00196
C22   1    0.108754    0.265886    0.627378    11.00000    0.01833    0.03428 =
         0.03994    0.01110    0.00249    0.00199
AFIX  43
H22   2    0.044858    0.287789    0.592095    11.00000   -1.20000
AFIX   0
C23   1    0.191334    0.309431    0.616054    11.00000    0.02365    0.02630 =
         0.03106    0.01063    0.00213    0.00096
AFIX  43
H23   2    0.183195    0.361138    0.573180    11.00000   -1.20000
AFIX   0
C24   1    0.031504    0.141187    0.697250    11.00000    0.02192    0.03991 =
         0.03699    0.00763    0.00576   -0.00387
PART 1
F1'   3   -0.021110    0.127203    0.575321    21.00000    0.05040    0.07836 =
         0.04108   -0.01588    0.00726   -0.04493
F2'   3    0.046626    0.084366    0.787348    21.00000    0.02973    0.02742 =
         0.13313    0.04483   -0.00898   -0.00173
F3'   3   -0.030817    0.195213    0.752738    21.00000    0.03305    0.05698 =
         0.08924    0.00225    0.04393   -0.00875
PART 0
PART 2
F1    3    0.007730    0.087696    0.582787   -21.00000    0.06707    0.08269 =
         0.05738   -0.03159    0.02557   -0.05417
F2    3    0.046871    0.093659    0.815349   -21.00000    0.03995    0.05514 =
         0.04399    0.01715    0.00884   -0.02095
F3    3   -0.049428    0.181282    0.694605   -21.00000    0.02547    0.04660 =
         0.14640    0.03413    0.02838    0.00427
HKLF 4

REM  a_a.res in P2(1)/c
REM R1 =  0.0542 for    3852 Fo > 4sig(Fo)  and  0.1064 for all    6507 data
REM    310 parameters refined using      6 restraints

END

WGHT      0.0553      0.0698

REM Highest difference peak  0.317,  deepest hole -0.280,  1-sigma level  0.058
Q1    1   0.3318  0.3022  0.6849  11.00000  0.05    0.32
Q2    1   0.0782  0.1706  0.6858  11.00000  0.05    0.31
Q3    1   0.6788  0.3190  0.6628  11.00000  0.05    0.30
Q4    1   0.6083  0.4307  0.6571  11.00000  0.05    0.29
Q5    1   0.5698  0.4172  0.7484  11.00000  0.05    0.28
Q6    1   0.6911  0.4434  0.6047  11.00000  0.05    0.28
Q7    1   0.2516  0.1872  0.7547  11.00000  0.05    0.28
Q8    1   0.3541  0.4212  0.9222  11.00000  0.05    0.26
Q9    1   0.8050  0.3770  0.6608  11.00000  0.05    0.26
Q10   1   0.4793  0.3819  0.7682  11.00000  0.05    0.26
Q11   1   0.2371  0.2938  0.6528  11.00000  0.05    0.25
Q12   1   0.5395  0.4114  0.6833  11.00000  0.05    0.25
Q13   1   0.3680  0.5331  0.8167  11.00000  0.05    0.24
Q14   1   0.3926  0.3912  0.8205  11.00000  0.05    0.24
Q15   1   0.3223  0.4297  0.8633  11.00000  0.05    0.24
Q16   1   0.2854  0.2465  0.7213  11.00000  0.05    0.23
Q17   1   0.1634  0.1795  0.7311  11.00000  0.05    0.23
Q18   1   0.3839  0.4641  0.8430  11.00000  0.05    0.23
Q19   1   0.4534  0.4960  0.8354  11.00000  0.05    0.23
Q20   1   0.3988  0.5323  0.8767  11.00000  0.05    0.22
;
_shelx_res_checksum                2314
_shelx_hkl_file
;
   0   0   1   -1.10    0.40
   0   0   1   -1.70    0.50
   0   0  -1   -3.00    0.40
   0   0  -2 3010.70   57.79
   0   0   2 3221.38   56.89
   0   0  -3   -0.60    0.80
   0   0   3   -1.10    1.00
   0   0  -4   97.29    4.00
   0   0   4   95.59    4.80
   0   0   5    1.50    1.60
   0   0  -5    0.10    1.20
   0   0   6  167.18    8.00
   0   0  -6  154.18    5.90
   0   0   7   -0.20    2.20
   0   0  -7   -1.60    1.40
   0   0  -8   16.70    2.80
   0   0   8   19.90    4.20
   0   0   9    4.40    3.10
   0   0  10   -0.60    2.80
   0   0  11   -2.30    3.10
   0   0  12    2.90    3.50
   0   0  13    2.60    4.30
   0   1   0   -0.10    0.10
   0   1   0   -0.10    0.10
   0  -1   0    0.10    0.10
   0  -1   0   -0.10    0.10
   0   1   1   51.69    1.60
   0  -1  -1   52.99    2.10
   0  -1   1   51.39    2.10
   0   1  -2 2273.47   41.60
   0   1   2 2270.47   41.60
   0  -1   2 2289.77   42.30
   0  -1  -2 2208.78   43.10
   0   1   3    1.20    1.00
   0   1  -3    0.10    0.60
   0  -1  -3   -1.70    1.00
   0  -1   3    0.10    1.10
   0   1  -4  207.98    5.60
   0   1   4  208.48    7.30
   0  -1  -4  199.98    6.70
   0  -1   4  211.68    7.60
   0   1   5   -0.50    1.50
   0   1  -5    1.30    1.10
   0  -1   5    0.60    1.60
   0  -1  -5    0.80    1.60
   0   1  -6    1.20    1.20
   0   1   6   -1.40    1.70
   0  -1   6   -1.00    1.70
   0  -1  -6    2.80    1.80
   0   1   7  123.69    7.20
   0   1  -7  115.19    4.90
   0  -1   7  120.59    7.50
   0  -1  -7  123.29    6.10
   0   1   8   -1.30    2.00
   0  -1   8    2.00    2.70
   0  -1  -8   -1.00    1.90
   0   1   9    3.40    3.40
   0  -1   9    4.60    3.50
   0   1  10   -0.40    3.00
   0  -1  10   -1.80    3.00
   0   1  11    6.20    3.80
   0  -1  11    4.30    3.80
   0   1  12    1.60    3.70
   0  -1  12    3.70    4.20
   0   1  13   21.00    6.20
   0  -1  13   24.20    6.50
   0   2   0   83.49    2.40
   0  -2   0   78.79    2.60
   0  -2   0   69.09    2.00
   0   2  -1  205.38    4.50
   0   2   1  211.48    4.30
   0  -2  -1  213.08    5.70
   0  -2   1  205.68    5.40
   0  -2   1  198.98    4.50
   0  -2  -1  219.18    4.30
   0   2   2  657.63   13.10
   0  -2   2  647.84   14.40
   0  -2  -2  653.83   14.70
   0   2   3  162.68    5.20
   0   2  -3  155.38    3.40
   0   2  -3  163.08    3.40
   0  -2   3  165.28    6.10
   0  -2  -3  161.68    5.80
   0   2  -4   14.90    1.10
   0   2   4   11.30    2.00
   0  -2   4   12.50    2.60
   0  -2  -4   13.90    2.40
   0   2  -5   12.10    1.30
   0   2   5   15.60    2.60
   0  -2   5   15.10    2.90
   0  -2  -5   16.40    2.80
   0   2  -6    9.80    1.30
   0   2   6   13.20    2.80
   0  -2  -6   12.40    2.60
   0  -2   6   10.00    3.00
   0   2   7   33.80    4.30
   0   2  -7   32.90    2.10
   0  -2  -7   36.30    4.20
   0  -2   7   37.50    5.30
   0   2   8   -0.10    1.90
   0  -2   8    0.20    2.50
   0  -2  -8    1.10    2.20
   0   2   9    4.30    3.10
   0  -2   9    4.10    3.60
   0  -2  -9   -0.10    2.20
   0   2  10   21.90    5.00
   0  -2  10   29.60    6.10
   0   2  11    3.30    3.60
   0  -2  11   -0.80    3.00
   0   2  12   31.40    6.70
   0  -2  12   24.70    6.50
   0  -3   0    2.10    1.20
   0   3   1  483.45    9.00
   0  -3  -1  501.45    9.20
   0  -3   1  463.05   10.10
   0  -3  -1  486.45   11.50
   0  -3   1  452.85   10.50
   0   3  -2  181.38    4.00
   0   3   2  187.98    4.60
   0  -3   2  179.68    3.90
   0  -3   2  183.78    6.10
   0  -3  -2  183.48    6.30
   0   3   3    9.70    1.50
   0  -3   3    7.30    1.80
   0  -3  -3    8.10    1.90
   0   3   4  594.84   14.10
   0  -3  -4  586.44   15.50
   0  -3   4  618.54   16.10
   0   3   5    1.40    1.50
   0  -3   5    3.50    2.10
   0  -3  -5    1.80    2.10
   0   3   6    2.50    1.80
   0  -3   6   -2.20    1.60
   0  -3  -6    4.50    2.20
   0   3   7   41.80    4.80
   0  -3  -7   45.80    4.90
   0  -3   7   48.60    5.90
   0   3   8   16.60    3.70
   0  -3   8   16.30    4.10
   0  -3  -8   14.10    3.50
   0   3   9   45.00    6.00
   0  -3   9   31.40    5.80
   0  -3  -9   37.00    5.00
   0   3  10    2.60    3.10
   0  -3  10   -3.30    2.60
   0   3  11    0.50    3.50
   0  -3  11   -3.20    2.80
   0   3  12    4.60    4.00
   0  -3  12    4.00    4.20
   0  -4   0  117.19    3.50
   0  -4   0  128.09    4.80
   0   4   1   17.80    0.90
   0  -4   1   21.90    1.90
   0  -4   1   17.60    1.80
   0  -4  -1   16.10    2.50
   0   4   2    6.90    0.90
   0  -4  -2    8.60    2.00
   0  -4   2    9.00    1.80
   0  -4   2    8.40    1.00
   0   4   3 1599.44   30.70
   0  -4   3 1643.84   33.60
   0  -4  -3 1623.04   34.50
   0   4   4   41.80    2.80
   0  -4  -4   33.40    4.00
   0  -4   4   47.60    4.10
   0   4   5  349.57   10.30
   0  -4  -5  356.96   11.80
   0  -4   5  333.67   12.10
   0   4   6    0.00    1.70
   0  -4  -6    2.00    2.50
   0  -4   6    4.10    2.60
   0   4   7   30.80    4.10
   0  -4   7   26.20    4.70
   0  -4  -7   35.70    4.80
   0   4   8   83.99    6.30
   0  -4  -8   90.99    6.90
   0  -4   8   92.99    7.80
   0   4   9   48.00    6.00
   0  -4   9   51.79    7.00
   0  -4  -9   46.70    5.90
   0   4  10   28.50    5.20
   0  -4  10   28.30    6.10
   0   4  11    3.80    3.20
   0  -4  11    2.10    3.40
   0   4  12   -3.90    3.20
   0  -4  12    1.60    4.10
   0  -5   0    0.20    0.60
   0  -5   0   -0.10    1.20
   0   5   1  216.38    4.70
   0  -5  -1  210.48    7.30
   0  -5   1  209.98    6.30
   0  -5   1  201.68    6.20
   0   5   2   20.60    1.20
   0  -5   2   21.20    1.70
   0  -5  -2   24.40    3.10
   0  -5   2   22.40    2.60
   0   5   3    0.40    0.80
   0  -5  -3   -2.30    1.50
   0  -5   3    1.00    1.50
   0  -5   3    0.90    0.50
   0   5   4  177.78    5.80
   0  -5   4  168.28    7.70
   0  -5  -4  178.98    8.00
   0   5   5  577.14   14.10
   0  -5   5  555.54   16.80
   0  -5  -5  552.04   16.60
   0   5   6    2.50    1.90
   0  -5  -6    0.60    2.30
   0  -5   6    2.20    2.30
   0   5   7  131.59    6.90
   0  -5  -7  155.68    8.80
   0  -5   7  132.89    8.70
   0   5   8    8.20    2.90
   0  -5  -8    3.10    3.10
   0  -5   8   10.60    3.80
   0   5   9    0.00    2.40
   0  -5   9    0.30    3.10
   0  -5  -9   -0.40    2.90
   0   5  10    9.50    3.50
   0  -5  10    3.00    3.60
   0  -5 -10    7.30    3.70
   0   5  11   -2.40    3.00
   0  -5  11   -0.10    3.70
   0  -5  12   16.70    5.60
   0  -6   0   10.60    2.10
   0  -6   0   13.50    1.50
   0  -6  -1    0.60    1.30
   0  -6   1    2.10    1.40
   0  -6   1    3.60    1.20
   0   6   2   15.00    1.00
   0  -6  -2    9.70    2.50
   0  -6   2   15.00    1.80
   0  -6   2   19.50    2.50
   0   6   3  450.75    9.60
   0  -6   3  436.26    9.80
   0  -6   3  426.16   12.80
   0  -6  -3  447.66   13.70
   0   6   4   11.30    1.70
   0  -6  -4   13.20    3.20
   0  -6   4   18.30    3.30
   0   6   5   31.30    3.10
   0  -6   5   23.40    3.90
   0  -6  -5   29.60    4.40
   0   6   6   53.69    4.10
   0  -6   6   58.49    6.50
   0  -6  -6   50.19    5.70
   0   6   7    4.40    2.20
   0  -6   7    0.20    2.60
   0  -6  -7    0.50    2.60
   0   6   8    5.40    2.50
   0  -6   8   -3.80    2.70
   0  -6  -8    6.00    3.50
   0   6   9    5.20    3.00
   0  -6   9    3.00    3.80
   0  -6  -9    5.20    3.70
   0   6  10   15.80    4.00
   0  -6  10    1.80    3.30
   0  -6 -10   10.50    4.10
   0  -6  11   -1.40    3.30
   0  -6  12    1.90    4.40
   0  -7   0   -0.90    1.40
   0  -7   0   -0.30    0.70
   0  -7   1    4.00    1.30
   0  -7  -1    2.40    1.90
   0  -7   1    3.00    1.50
   0   7   2   40.10    1.70
   0  -7   2   36.50    3.20
   0  -7   2   32.40    2.70
   0  -7  -2   38.40    4.30
   0   7   3  115.09    3.60
   0  -7   3  112.89    5.90
   0  -7  -3  110.39    6.70
   0  -7   3  111.89    4.20
   0   7   4  218.08    6.20
   0  -7  -4  216.58    9.80
   0  -7   4  215.98    9.20
   0  -7   4  218.38    5.20
   0   7   5  382.56   10.10
   0  -7   5  367.86   13.50
   0  -7  -5  357.26   13.70
   0   7   6    8.80    2.20
   0  -7  -6    5.80    3.20
   0  -7   6    9.00    3.20
   0   7   7   -1.20    1.60
   0  -7   7    2.90    2.80
   0  -7  -7   -0.80    2.80
   0   7   8   -0.90    1.90
   0  -7   8    1.40    3.00
   0  -7  -8   -1.40    3.10
   0   7   9    7.00    3.10
   0  -7  -9    5.00    3.70
   0  -7   9    4.20    3.70
   0  -7 -10   -2.00    3.10
   0  -7  10    1.00    3.30
   0  -7  11    1.40    4.30
   0  -7  12   -4.10    3.60
   0  -8   0  409.26    9.80
   0  -8   0  400.26   12.30
   0  -8  -1  253.47    6.20
   0  -8   1  248.58    7.90
   0  -8  -1  251.37    9.70
   0  -8   1  245.08    8.60
   0   8   2   55.79    2.20
   0  -8   2   62.59    4.10
   0  -8   2   52.89    3.70
   0  -8  -2   54.69    5.00
   0   8   3   -0.80    0.60
   0  -8  -3    1.60    2.40
   0  -8   3    0.20    1.40
   0  -8   3    0.10    1.10
   0   8   4  233.18    6.40
   0  -8  -4  251.57   11.00
   0  -8   4  234.68    9.80
   0  -8   4  234.28    6.20
   0   8   5    4.80    1.50
   0  -8  -5    7.20    3.30
   0  -8   5    2.40    2.40
   0   8   6   -0.30    1.40
   0  -8  -6    3.00    3.20
   0  -8   6   -0.10    2.40
   0   8   7   22.20    3.30
   0  -8  -7   21.90    4.90
   0  -8   7   25.70    5.00
   0   8   8    5.10    2.40
   0  -8   8    6.10    3.80
   0  -8  -8    4.50    4.00
   0  -8   9   10.90    4.50
   0  -8  -9   17.30    5.10
   0  -8 -10   -5.40    3.30
   0  -8  10   -5.90    2.80
   0  -8  11    7.70    4.80
   0  -8  12    2.60    4.80
   0  -9   0    0.60    2.00
   0  -9   0    0.50    0.90
   0  -9  -1    5.50    2.60
   0  -9   1    2.00    1.30
   0  -9   1    3.30    2.00
   0  -9  -1    3.70    1.00
   0   9   2   39.40    1.90
   0  -9   2   38.90    3.40
   0  -9   2   37.60    3.70
   0  -9  -2   42.50    5.10
   0   9   3   73.29    2.70
   0  -9   3   70.19    4.00
   0  -9  -3   74.89    6.30
   0  -9   3   73.29    5.20
   0   9   4   59.49    2.80
   0  -9   4   43.70    5.00
   0  -9   4   52.09    2.90
   0  -9  -4   53.99    6.20
   0   9   5    6.40    1.60
   0  -9  -5    7.80    3.50
   0  -9   5    8.20    3.10
   0   9   6   30.20    3.10
   0  -9  -6   31.80    5.60
   0  -9   6   25.80    4.80
   0   9   7    4.30    2.00
   0  -9  -7    4.50    3.80
   0  -9   7    1.10    3.20
   0  -9   8    0.40    3.40
   0  -9  -8    4.90    3.90
   0  -9  -9   -4.40    2.90
   0  -9   9    8.60    3.90
   0  -9 -10   17.30    5.40
   0  -9  10   16.00    5.70
   0  -9 -11    8.50    4.90
   0  -9  11    9.20    5.90
   0  -9  12    3.90    4.90
   0 -10   0  346.67    9.30
   0 -10   0  359.36   12.60
   0 -10  -1  155.48    8.40
   0 -10   1  180.08    7.90
   0 -10   1  170.08    6.60
   0 -10  -1  164.58    5.00
   0  10   2  115.89    3.70
   0 -10  -2  130.39    8.00
   0 -10   2  115.29    6.00
   0 -10   2  123.49    6.20
   0  10   3   31.10    1.70
   0 -10  -3   26.40    4.70
   0 -10   3   29.10    3.20
   0 -10   3   30.80    4.20
   0  10   4   11.50    1.50
   0 -10   4    9.20    1.80
   0 -10   4    9.60    3.00
   0 -10  -4    6.90    3.10
   0  10   5   53.09    3.10
   0 -10  -5   62.19    7.30
   0 -10   5   58.09    2.70
   0 -10   5   48.70    5.90
   0  10   6    0.70    1.30
   0 -10   6   -3.90    2.00
   0 -10  -6   -2.00    3.30
   0 -10  -7    0.40    3.40
   0 -10   7    3.80    3.40
   0 -10  -8   39.00    6.90
   0 -10   8   27.50    6.00
   0 -10  -9    2.30    4.00
   0 -10   9    4.60    3.90
   0 -10 -10   16.00    5.50
   0 -10  10   11.70    5.00
   0 -10  11    0.30    3.90
   0 -10 -11   -5.20    4.50
   0 -11   0    0.60    2.20
   0 -11   0   -1.20    0.90
   0 -11  -1  203.28    9.90
   0 -11   1  199.28    7.40
   0 -11   1  183.48    8.60
   0  11   2   12.90    1.40
   0 -11  -2    5.60    3.20
   0 -11   2   12.80    2.90
   0 -11   2    8.60    2.20
   0  11   3    2.30    0.80
   0 -11  -3    2.90    3.10
   0 -11   3    1.50    1.70
   0 -11   3    3.80    1.90
   0  11   4   31.70    2.00
   0 -11   4   30.20    3.20
   0 -11  -4   27.90    5.30
   0 -11   4   33.50    4.90
   0 -11   5   94.19    7.20
   0 -11  -5  118.99    9.10
   0 -11   6    5.70    3.30
   0 -11  -6   13.70    4.80
   0 -11  -7    3.20    4.10
   0 -11   7    1.20    2.90
   0 -11  -8   -4.50    3.40
   0 -11   8   -1.20    2.90
   0 -11   9    1.60    3.40
   0 -11  -9    0.10    4.00
   0 -11  10   -2.30    3.20
   0 -11 -10    2.50    4.80
   0 -11 -11    0.90    5.30
   0 -11  11   12.60    5.50
   0 -12   0   63.59    5.80
   0 -12   0   63.69    3.60
   0 -12   1    4.50    1.80
   0 -12  -1    7.50    3.20
   0 -12   1    2.80    2.70
   0  12   2   86.29    3.20
   0 -12  -2   70.79    7.40
   0 -12   2   81.89    5.80
   0 -12   2   83.69    5.40
   0  12   3   49.40    2.20
   0 -12   3   42.50    5.10
   0 -12  -3   56.29    6.80
   0 -12   3   44.80    4.60
   0 -12   4   73.19    6.30
   0 -12  -4   61.79    7.60
   0 -12   4   65.99    4.30
   0 -12   5    7.00    3.10
   0 -12  -5    6.70    4.30
   0 -12   6    7.10    3.50
   0 -12  -6    1.00    3.70
   0 -12   7   -4.00    2.40
   0 -12  -7    6.50    4.40
   0 -12   8    7.20    3.90
   0 -12  -8    3.10    4.40
   0 -12   9    2.20    3.60
   0 -12  -9   -1.40    4.10
   0 -12 -10   55.39    9.80
   0 -12  10   34.40    7.20
   0 -12 -11    7.80    5.90
   0 -12  11    0.60    4.20
   0 -13   0    0.60    2.70
   0 -13   0    0.80    1.20
   0 -13   1   46.50    5.60
   0 -13   1   44.80    3.70
   0 -13  -1   49.99    6.40
   0  13   2   59.79    2.80
   0 -13   2   49.80    5.40
   0 -13  -2   64.59    7.40
   0 -13   2   60.79    4.90
   0 -13  -3  133.69    9.70
   0 -13   3  147.79    7.40
   0 -13   3  148.49    8.10
   0 -13   4   82.29    5.00
   0 -13   4   71.59    7.10
   0 -13  -4   62.79    8.00
   0 -13  -5   11.70    5.00
   0 -13   5   19.40    4.40
   0 -13  -6   -1.80    3.80
   0 -13   6    5.10    3.30
   0 -13   7    2.30    3.10
   0 -13  -7    9.60    5.20
   0 -13   8   -1.20    2.80
   0 -13  -8    0.40    4.30
   0 -13   9    5.70    4.60
   0 -13  -9    5.20    6.00
   0 -13  10    5.50    4.50
   0 -13 -10   -4.40    4.60
   0 -14   0   13.40    4.00
   0 -14   0   13.80    2.20
   0  14   1   10.60    1.80
   0 -14   1    7.30    2.10
   0 -14   1   10.00    3.40
   0 -14  -1    5.50    3.70
   0  14   2    8.50    1.40
   0 -14   2   13.70    3.50
   0 -14   2   10.20    2.80
   0 -14  -2    5.20    3.90
   0 -14   3   53.89    5.70
   0 -14  -3   61.79    7.90
   0 -14   3   53.89    5.60
   0 -14  -4    2.70    4.30
   0 -14   4    3.80    2.50
   0 -14   4    8.50    2.50
   0 -14  -5   -0.30    3.80
   0 -14   5    8.00    3.50
   0 -14   6    3.50    3.40
   0 -14  -6    3.30    4.60
   0 -14  -7    9.20    5.30
   0 -14   7   -0.90    2.80
   0 -14   8    2.40    3.50
   0 -14  -8   -0.40    4.60
   0 -14  -9    9.30    5.90
   0 -14   9    4.80    4.20
   0 -14  10   -0.60    3.60
   0 -14 -10   -7.00    5.50
   0 -15   0    0.50    3.60
   0 -15   0    0.60    1.30
   0  15   1  101.99    4.40
   0 -15  -1   89.29    8.20
   0 -15   1   85.09    5.30
   0 -15   1   92.09    7.40
   0 -15   2   89.49    6.00
   0 -15   2  103.09    7.50
   0 -15  -2   92.29    9.50
   0 -15   3  284.37   11.80
   0 -15  -3  289.67   14.70
   0 -15   3  303.47   12.10
   0 -15   4    7.80    2.50
   0 -15   4    6.80    3.00
   0 -15  -4    3.00    4.30
   0 -15  -5   14.60    5.80
   0 -15   5   20.80    4.60
   0 -15  -6   40.90    7.90
   0 -15   6   27.50    5.30
   0 -15  -7    9.40    5.50
   0 -15   7   -0.20    3.40
   0 -15  -8    0.30    5.20
   0 -15   8    0.30    3.70
   0 -15  -9    3.40    5.60
   0 -15   9    0.30    4.00
   0 -15 -10   -6.00    4.80
   0 -15  10    5.80    4.70
   0 -16   0   60.99    7.60
   0 -16   0   56.39    3.90
   0 -16   1    3.90    1.80
   0 -16  -1    3.10    4.30
   0 -16   1    2.20    3.40
   0 -16   2   -0.30    2.30
   0 -16   2    2.30    2.20
   0 -16  -2    7.70    4.40
   0 -16   3   57.59    6.20
   0 -16  -3   53.79    8.10
   0 -16   3   52.09    6.10
   0 -16   4    0.60    2.20
   0 -16  -4   -4.30    3.20
   0 -16   5   22.20    4.70
   0 -16  -5   20.10    6.20
   0 -16  -6    3.80    5.10
   0 -16   6    5.60    3.50
   0 -16   7    5.10    3.60
   0 -16  -7    0.00    4.70
   0 -16   8    5.40    4.20
   0 -16  -8    8.60    6.30
   0 -16   9    3.00    4.00
   0 -16  -9    5.50    6.10
   0 -17   0   -1.70    3.10
   0 -17   1    2.60    1.80
   0 -17   1    0.80    3.50
   0 -17  -1   -1.20    3.20
   0 -17   2    2.30    3.30
   0 -17  -2    3.40    4.40
   0 -17   2   -0.60    1.80
   0 -17  -3    6.10    4.70
   0 -17   3    3.00    2.80
   0 -17   3    4.60    2.40
   0 -17   4    1.90    2.70
   0 -17  -4    7.40    4.70
   0 -17   5    5.20    2.80
   0 -17  -5    3.90    5.10
   0 -17  -6    1.90    5.10
   0 -17   6    1.90    3.00
   0 -17  -7   -5.90    4.70
   0 -17   7    4.90    3.90
   0 -17  -8    1.20    6.20
   0 -17   8    0.90    3.50
   0 -17  -9   -6.30    5.20
   0 -17   9   -0.50    3.70
   0 -18   0  101.89    9.20
   0 -18  -1   58.79    8.00
   0 -18   1   65.09    6.50
   0 -18   1   60.19    7.70
   0 -18  -2    1.70    4.20
   0 -18   2    3.80    3.80
   0 -18   2   10.60    2.80
   0 -18   3   36.70    5.60
   0 -18  -3   26.10    6.70
   0 -18   3   32.00    4.90
   0 -18  -4    0.20    4.70
   0 -18   4   10.40    3.70
   0 -18   5   29.60    5.40
   0 -18  -5   13.70    6.60
   0 -18  -6   49.90    9.50
   0 -18   6   49.40    7.30
   0 -18   7    2.60    3.80
   0 -18  -7   -6.50    4.50
   0 -18  -8    9.00    6.40
   0 -18   8    1.50    4.10
   0 -19   0    3.20    4.00
   0 -19   1   -1.50    3.20
   0 -19  -1    2.70    4.20
   0 -19  -2   18.70    6.00
   0 -19   2   27.70    4.80
   0 -19   2   14.50    4.80
   0 -19  -3   -2.80    4.10
   0 -19   3   -1.80    2.90
   0 -19   3    3.60    2.60
   0 -19   4    0.20    2.30
   0 -19  -4    2.00    4.80
   0 -19   5    4.70    3.30
   0 -19  -5    6.80    5.50
   0 -19   6    7.90    4.30
   0 -19  -6    7.70    6.10
   0 -19  -7    5.70    6.60
   0 -19   7   -0.80    3.40
   0 -20   0    0.30    3.90
   0 -20   1   15.00    5.10
   0 -20  -1    8.30    5.20
   0 -20   2    2.40    3.70
   0 -20  -2    5.20    5.10
   0 -20   3    7.00    3.50
   0 -20  -3    7.20    5.50
   0 -20  -4   18.20    6.90
   0 -20   4   22.10    4.80
   0 -20  -5   -5.50    5.10
   0 -20   5    5.70    3.50
   0 -20  -6   11.40    6.90
   0 -20   6   15.60    5.00
   0 -20   7   45.70    7.50
   0 -20  -7   58.09   11.10
   0 -21   0   -3.00    3.60
   0 -21  -1   -1.50    4.10
   0 -21   1   -0.20    4.10
   0 -21   2    0.80    3.70
   0 -21  -2   -5.40    3.90
   0 -21  -3   -5.60    4.40
   0 -21  -4   -3.20    4.90
   0 -21  -5   11.40    7.00
   0 -21   5   11.80    4.40
   0 -21  -6    7.20    6.60
   0 -21   6    7.90    3.90
   0 -22   0   -0.60    4.20
   0 -22  -1   -1.40    4.50
   0 -22   1   -4.00    3.20
   0 -22   2   10.20    5.00
   0 -22  -2   18.20    6.50
   0 -22  -3    0.00    5.40
   0 -22  -4   11.10    6.90
   0 -22  -5   -3.10    6.40
   0 -23   0    0.80    4.30
   0 -23   1    0.90    4.20
   0 -23  -1    5.70    5.40
   0 -23  -2    9.00    6.20
   0 -23  -3   -4.40    4.80
  -1   0  13   -3.40    3.80
  -1   0  12   10.30    4.80
  -1   0  11   -1.10    2.60
  -1   0  10   35.60    5.80
  -1   0   9    1.10    2.70
   1   0  -8   42.50    4.10
  -1   0   8   51.39    6.00
  -1   0   7   -2.70    1.60
   1   0  -7   -1.00    1.50
  -1   0   6   12.60    2.80
   1   0  -6    9.10    2.10
  -1   0   5    1.10    1.60
   1   0  -5   -1.60    1.10
   1   0  -4   31.00    2.40
  -1   0   4   31.00    3.10
  -1   0   3    0.60    1.10
   1   0  -3   -1.70    0.60
  -1   0   2  513.55   11.10
  -1   0   2  513.65   11.00
  -1   0   1    0.10    0.30
  -1   0   1   -0.50    0.30
  -1   0   0    0.00    0.10
   1   0   0    0.00    0.10
  -1   0   0    0.20    0.10
   1   0   1   -9.50    0.80
  -1   0  -1   -8.10    0.80
   1   0   2 3147.69   57.69
  -1   0  -2 3157.58   58.79
  -1   0  -3   -0.50    0.80
   1   0   3    1.20    1.20
   1   0   4  621.94   15.50
  -1   0  -4  601.94   13.80
   1   0   5   -1.00    1.40
  -1   0  -5   -0.20    1.10
  -1   0  -6   25.70    2.70
   1   0   6   26.30    3.90
   1   0   7   -0.90    1.90
  -1   0  -7   -0.80    1.20
   1   0   8  119.29    8.20
  -1   0  -8  118.19    5.50
   1   0   9   -0.80    2.80
   1   0  10    0.60    3.40
   1   0  11   -4.10    3.10
   1   0  12   -3.70    3.50
  -1   1  13    2.80    4.40
  -1  -1  13    3.80    3.80
  -1   1  12   -4.50    2.60
  -1  -1  12    4.00    4.10
  -1   1  11   28.40    6.00
  -1  -1  11   25.40    6.00
  -1   1  10    5.00    3.70
  -1  -1  10   14.50    4.50
  -1   1   9    7.50    3.40
  -1  -1   9    4.30    3.00
   1   1  -8   87.89    4.60
  -1   1   8   81.99    6.60
   1  -1  -8   81.39    5.50
  -1  -1   8   83.79    7.00
   1   1  -7   14.40    2.30
  -1   1   7   11.60    3.00
   1  -1  -7    9.10    2.50
  -1  -1   7    9.90    2.90
   1   1  -6   23.20    2.50
  -1   1   6   23.80    3.60
  -1  -1   6   25.90    3.90
   1  -1  -6   22.50    3.00
   1   1  -5   46.00    2.90
  -1   1   5   53.09    4.00
   1  -1  -5   50.89    3.60
  -1  -1   5   47.50    4.60
   1   1  -4  248.38    6.70
  -1   1   4  257.37    8.00
  -1  -1   4  264.77    8.70
   1  -1  -4  249.88    7.70
  -1   1   3  346.17    9.00
   1   1  -3  369.16    8.20
  -1  -1   3  362.36    9.70
   1  -1  -3  359.56    9.30
  -1   1   2 1497.15   28.00
  -1  -1   2 1461.15   28.70
  -1  -1   2 1514.55   28.30
   1  -1  -2 1497.35   29.40
  -1   1   1  111.69    3.40
  -1   1   1  116.09    2.70
  -1  -1   1  114.79    3.30
  -1   1   0   24.10    1.10
   1   1   0   27.90    1.00
  -1  -1   0   25.20    1.20
   1   1   1   70.39    2.30
  -1   1  -1   70.19    2.00
   1  -1   1   67.39    2.60
  -1  -1  -1   68.69    2.70
   1  -1   1   71.39    2.00
   1   1   2    2.90    1.00
  -1   1  -2    2.50    0.60
   1  -1   2    1.40    1.00
  -1  -1  -2    2.40    1.10
  -1   1  -3  683.93   13.80
   1   1   3  686.63   15.30
  -1  -1  -3  674.33   15.20
   1  -1   3  674.43   15.80
  -1   1  -4   21.40    1.70
   1   1   4   21.90    2.70
   1  -1   4   20.00    2.90
  -1  -1  -4   20.00    2.40
   1   1   5   79.19    5.00
  -1   1  -5   73.79    3.20
   1  -1   5   70.89    5.00
  -1  -1  -5   66.29    4.10
  -1   1  -6   10.80    1.70
   1   1   6   11.30    3.00
   1  -1   6    5.10    2.50
  -1  -1  -6   12.40    2.40
   1   1   7   50.39    5.70
  -1   1  -7   47.70    3.10
   1  -1   7   63.49    6.40
  -1  -1  -7   50.89    4.00
   1   1   8   50.39    6.00
  -1  -1  -8   59.19    4.50
   1  -1   8   59.89    6.80
   1   1   9    1.10    2.60
   1  -1   9   -1.00    2.90
   1   1  10    7.30    3.80
   1  -1  10   -0.30    3.10
   1   1  11   -0.10    3.20
   1  -1  11   -0.60    3.30
   1   1  12    3.80    3.90
   1  -1  12   -2.90    3.10
  -1   2  13   12.80    5.20
  -1  -2  13    4.60    4.60
  -1   2  12   47.20    7.30
  -1  -2  12   53.09    8.20
  -1   2  11    4.70    3.50
  -1  -2  11   -0.10    3.10
  -1   2  10    7.10    3.40
  -1  -2  10    1.30    3.20
  -1   2   9   92.09    7.40
  -1  -2   9  100.59    8.00
   1  -2  -9  105.69    6.70
  -1   2   8  109.99    7.30
   1  -2  -8  126.59    7.10
  -1  -2   8  111.29    8.20
   1   2  -7  236.18    6.90
  -1   2   7  247.18   10.10
  -1  -2   7  261.07   11.30
   1  -2  -7  246.88    9.50
   1   2  -6   40.60    2.50
  -1   2   6   49.70    4.20
   1  -2  -6   41.70    4.20
  -1  -2   6   42.10    4.80
   1   2  -5   22.20    1.90
  -1   2   5   20.30    2.80
   1  -2  -5   22.90    3.10
  -1  -2   5   27.20    3.60
   1   2  -4   50.19    2.20
  -1   2   4   50.39    3.20
   1  -2  -4   49.00    3.60
  -1  -2   4   46.80    3.70
  -1   2   3   84.89    3.50
   1  -2  -3   79.19    4.00
  -1  -2   3   79.59    2.50
  -1  -2   3   93.49    4.50
  -1   2   2 1319.07   24.60
   1  -2  -2 1331.47   27.00
  -1  -2   2 1333.27   25.00
  -1  -2   2 1311.37   26.20
   1  -2  -1 1492.45   29.50
  -1  -2   1 1501.65   28.30
  -1  -2   1 1488.15   28.00
   1  -2   0  825.02   15.40
   1  -2   0  852.01   16.60
  -1  -2   0  831.42   16.80
  -1  -2   0  794.52   15.50
   1   2   1 5759.22  105.19
  -1   2  -1 5540.95  107.69
  -1  -2  -1 5973.40  107.29
   1  -2   1 5867.91  103.09
  -1   2  -2 2734.23   52.29
   1   2   2 2873.21   50.99
   1  -2   2 2782.82   52.19
  -1  -2  -2 2845.82   53.79
   1  -2   2 2732.13   51.39
   1   2   3    0.40    0.90
  -1   2  -3    2.00    0.40
   1  -2   3    0.80    0.50
  -1  -2  -3    0.10    1.10
   1  -2   3    2.50    1.50
  -1   2  -4   11.00    1.00
   1   2   4   11.60    2.10
   1  -2   4   11.00    2.60
  -1  -2  -4    9.90    2.20
  -1   2  -5   55.89    2.30
   1   2   5   59.59    4.30
   1  -2   5   59.39    4.80
  -1  -2  -5   54.59    3.90
  -1   2  -6   30.50    1.90
   1   2   6   29.90    4.00
   1  -2   6   33.10    4.70
  -1  -2  -6   29.20    3.50
   1   2   7    1.70    2.10
  -1   2  -7    1.60    0.90
  -1  -2  -7   -1.70    1.80
   1  -2   7    0.50    2.20
   1   2   8    4.40    2.70
   1  -2   8   10.70    3.90
  -1  -2  -8    7.10    2.50
   1   2   9   15.80    4.20
   1  -2   9   14.30    4.40
   1   2  10   30.70    5.70
   1  -2  10   36.10    6.60
   1   2  11    6.00    4.10
   1  -2  11   12.40    4.90
   1   2  12    1.10    3.90
   1  -2  12   -4.30    3.70
  -1  -3  13   24.80    6.50
  -1   3  12   24.50    5.60
  -1  -3  12   34.20    7.00
  -1   3  11    9.40    4.20
  -1  -3  11    6.50    3.80
  -1   3  10    0.90    2.50
  -1  -3  10    5.50    3.70
  -1   3   9  110.19    7.60
   1  -3  -9  103.59    7.10
  -1  -3   9   87.69    7.70
  -1   3   8    3.00    2.50
   1  -3  -8    7.20    2.90
  -1  -3   8    0.40    2.60
  -1   3   7   26.60    3.90
   1   3  -7   20.00    1.40
   1  -3  -7   16.50    3.50
  -1  -3   7   15.20    3.70
  -1   3   6    2.90    1.80
   1   3  -6    3.50    0.90
  -1  -3   6    5.20    2.50
   1  -3  -6    3.10    2.30
   1   3  -5  999.50   19.90
  -1   3   5 1024.90   22.70
  -1  -3   5 1053.39   25.00
   1  -3  -5 1051.39   24.50
  -1   3   4   15.80    2.10
   1   3  -4   16.10    1.10
  -1  -3   4   17.60    2.80
   1  -3  -4   16.80    2.90
  -1   3   3 1409.96   27.00
  -1  -3   3 1387.66   26.60
   1  -3  -3 1433.36   30.10
  -1  -3   3 1424.66   29.50
  -1   3   2    3.10    0.60
   1  -3  -2    2.60    1.30
  -1  -3   2    2.70    0.60
  -1  -3   2    3.60    1.20
  -1  -3   1  128.59    3.90
   1  -3  -1  132.89    4.70
  -1  -3   1  133.59    4.20
   1  -3   0  429.86    9.80
   1  -3   0  407.06    8.60
  -1  -3   0  417.96    9.90
  -1  -3   0  422.86    8.70
   1   3   1  391.46    8.20
   1  -3   1  388.96    9.20
   1  -3   1  390.26    8.60
  -1  -3  -1  393.96   10.00
   1   3   2   89.29    3.00
   1  -3   2   79.39    2.30
  -1  -3  -2   79.39    4.00
   1  -3   2   82.09    2.20
   1  -3   2   75.79    3.80
   1   3   3    3.10    1.10
   1  -3   3    2.60    1.50
  -1  -3  -3    2.80    1.60
   1   3   4   65.59    3.80
  -1  -3  -4   76.29    4.80
   1  -3   4   54.79    4.30
   1   3   5   17.00    2.60
  -1  -3  -5   10.50    2.60
   1  -3   5    5.70    2.40
   1   3   6    3.00    2.10
  -1  -3  -6   -0.50    1.60
   1  -3   6   -1.50    1.80
   1   3   7    3.00    2.70
   1  -3   7    5.20    2.90
  -1  -3  -7    6.70    2.60
   1   3   8    1.40    2.40
  -1  -3  -8    3.90    2.70
   1  -3   8    2.60    2.80
   1   3   9    2.90    2.90
  -1  -3  -9   -2.40    2.10
   1  -3   9   -4.60    2.20
   1   3  10    0.50    2.90
   1  -3  10   -0.90    3.20
   1   3  11    7.30    4.10
   1  -3  11    8.50    4.80
   1   3  12    6.70    4.40
   1  -3  12    6.70    4.80
  -1   4  12    5.60    4.60
  -1  -4  12    9.80    5.30
  -1   4  11    1.60    3.00
  -1  -4  11   -2.80    2.70
  -1   4  10    6.50    3.30
   1  -4 -10   -1.50    3.20
  -1  -4  10    8.60    4.40
  -1   4   9   43.40    5.70
  -1  -4   9   52.29    6.90
   1  -4  -9   50.79    6.10
  -1   4   8   59.29    5.30
   1  -4  -8   68.49    6.20
  -1  -4   8   61.19    6.90
  -1   4   7   81.79    5.50
   1  -4  -7   87.09    6.40
  -1  -4   7   77.59    6.50
  -1   4   6   46.50    3.90
   1  -4  -6   43.80    4.80
  -1  -4   6   51.39    5.60
  -1   4   5   72.59    4.10
   1  -4  -5   50.49    4.60
  -1  -4   5   74.29    5.40
  -1   4   4  163.58    5.40
   1   4  -4  156.78    3.60
   1  -4  -4  162.68    7.30
  -1  -4   4  166.68    3.70
  -1  -4   4  170.68    7.30
  -1   4   3   15.80    1.50
  -1  -4   3   13.60    2.40
  -1  -4   3   14.20    1.00
   1  -4  -3   16.90    2.70
  -1   4   2  352.76    7.00
   1  -4  -2  362.76   10.40
   1  -4  -2  368.96    6.90
  -1  -4   2  360.46    9.80
  -1  -4   2  354.96    8.20
  -1   4   1  256.27    4.90
   1  -4  -1  250.47    7.70
   1  -4  -1  260.37    4.80
  -1  -4   1  259.97    6.90
  -1  -4   1  253.87    6.80
   1  -4   0 1735.23   33.70
   1  -4   0 1636.34   31.20
  -1  -4   0 1662.73   31.20
  -1  -4   0 1734.23   33.90
   1   4   1  128.99    3.60
  -1  -4  -1  130.09    5.20
   1  -4   1  126.59    4.50
   1  -4   1  130.49    4.30
   1   4   2   80.69    2.80
   1  -4   2   78.79    2.70
   1  -4   2   83.79    4.10
  -1  -4  -2   76.29    4.20
   1   4   3    3.40    1.10
  -1  -4  -3    5.00    1.90
   1  -4   3    4.90    1.90
   1   4   4    8.70    1.80
  -1  -4  -4    4.30    2.10
   1  -4   4    4.20    2.00
   1   4   5   -0.60    1.30
   1  -4   5    0.90    2.00
  -1  -4  -5   -1.70    1.90
   1   4   6   18.10    3.10
  -1  -4  -6   12.40    3.00
   1  -4   6   10.30    3.10
   1   4   7   21.50    3.80
   1  -4   7   21.40    4.40
  -1  -4  -7   31.10    4.30
   1   4   8   16.90    3.70
   1  -4   8   13.40    4.20
  -1  -4  -8    8.40    3.30
   1   4   9    2.90    2.70
   1  -4   9   -1.60    2.80
  -1  -4  -9    0.80    2.60
   1   4  10   36.50    5.80
   1  -4  10   31.50    6.50
   1   4  11   20.50    5.30
   1  -4  11   16.80    5.50
   1   4  12    3.50    4.20
   1  -4  12    6.20    5.10
  -1  -5  12   21.70    6.40
  -1   5  11    4.00    3.20
  -1  -5  11   -7.30    2.40
  -1   5  10    2.10    2.70
  -1  -5  10    0.10    3.40
   1  -5 -10    2.00    3.20
  -1   5   9   21.90    4.20
   1  -5  -9   19.20    4.60
  -1  -5   9   19.90    5.20
  -1   5   8   46.00    5.10
   1  -5  -8   49.60    6.00
  -1  -5   8   45.00    6.50
  -1   5   7    0.70    1.90
  -1  -5   7    6.90    3.10
   1  -5  -7    5.00    3.00
  -1   5   6  181.08    7.20
  -1  -5   6  196.78    9.50
   1  -5  -6  190.28    9.20
  -1   5   5  176.68    6.40
   1  -5  -5  181.58    8.50
  -1  -5   5  185.38    8.60
  -1   5   4  154.18    5.00
   1  -5  -4  150.48    7.30
  -1  -5   4  152.68    3.60
  -1  -5   4  139.39    6.80
  -1   5   3  144.69    4.00
  -1  -5   3  143.09    4.10
  -1  -5   3  142.69    6.30
   1  -5  -3  153.28    6.90
  -1   5   2   48.30    1.20
  -1   5   2   50.59    1.30
   1  -5  -2   49.80    3.80
  -1  -5   2   45.80    3.30
  -1  -5   2   52.09    2.50
  -1   5   1   15.80    1.10
  -1  -5   1   14.80    1.70
   1  -5  -1   17.00    0.80
   1  -5  -1   16.10    2.30
  -1  -5   1   18.30    2.00
   1  -5   0   14.30    1.50
  -1  -5   0   11.30    1.30
  -1  -5   0   16.00    2.30
   1  -5   0   12.80    2.00
   1   5   1   10.00    1.10
  -1  -5  -1    6.70    1.90
   1  -5   1   10.00    1.60
   1  -5   1    8.50    1.60
   1   5   2   34.70    1.80
   1  -5   2   34.80    2.20
  -1  -5  -2   34.20    3.60
   1  -5   2   37.50    3.00
   1   5   3  185.28    5.40
  -1  -5  -3  176.58    7.60
   1  -5   3  181.88    7.30
   1  -5   3  175.48    4.30
   1   5   4   10.00    1.80
   1  -5   4   10.20    2.70
  -1  -5  -4   11.40    2.80
   1   5   5   34.90    3.40
   1  -5   5   33.00    4.50
  -1  -5  -5   34.80    4.30
   1   5   6    0.70    1.80
   1  -5   6    3.60    2.70
  -1  -5  -6    4.00    2.50
   1   5   7  132.89    7.20
   1  -5   7  132.29    8.70
  -1  -5  -7  134.69    8.20
   1   5   8    5.10    2.80
   1  -5   8   11.30    3.90
  -1  -5  -8    3.80    2.80
   1   5   9   -0.50    2.40
  -1  -5  -9    1.60    3.10
   1  -5   9    2.40    3.80
   1   5  10    6.00    3.50
   1  -5  10    0.40    3.60
   1   5  11    9.30    4.30
   1  -5  11    4.80    4.60
   1  -5  12    6.60    5.10
  -1  -6  12   -1.00    4.20
  -1  -6  11   -0.80    3.60
  -1   6  10    1.30    2.50
   1  -6 -10   -4.40    2.90
  -1  -6  10   -1.30    3.10
  -1   6   9    3.60    2.40
  -1  -6   9   -1.30    2.80
   1  -6  -9   -0.60    2.60
  -1   6   8   28.10    4.00
   1  -6  -8   24.10    4.80
  -1  -6   8   24.40    5.30
  -1   6   7   27.90    3.60
  -1  -6   7   29.00    5.20
   1  -6  -7   23.80    4.60
  -1   6   6    3.00    1.60
  -1  -6   6    2.90    2.40
   1  -6  -6   -1.00    2.60
  -1   6   5   -0.60    1.10
  -1  -6   5    1.80    2.10
   1  -6  -5   -1.50    2.20
  -1   6   4  189.48    5.50
  -1  -6   4  186.18    4.70
   1  -6  -4  189.58    8.70
  -1  -6   4  195.18    8.40
  -1   6   3  141.39    3.80
  -1  -6   3  153.28    4.70
  -1  -6   3  149.69    6.60
   1  -6  -3  144.69    7.10
   1  -6  -2   37.20    4.00
  -1  -6   2   38.20    3.50
  -1  -6   2   31.60    2.40
  -1  -6   1   25.10    2.70
   1  -6  -1   23.10    1.10
  -1  -6   1   19.80    2.20
   1  -6  -1   26.20    3.20
   1  -6   0    4.80    1.70
  -1  -6   0    7.70    1.20
   1  -6   0    7.50    1.20
  -1  -6   0    4.90    1.80
   1   6   1    0.70    0.60
   1  -6   1   -0.30    1.00
  -1  -6  -1    0.60    1.80
   1  -6   1   -1.30    1.10
   1   6   2  173.78    4.60
   1  -6   2  161.18    6.50
  -1  -6  -2  169.98    7.20
   1  -6   2  164.98    5.40
   1   6   3   59.09    2.80
   1  -6   3   56.09    4.40
  -1  -6  -3   57.09    4.80
   1  -6   3   57.09    2.50
   1   6   4   97.59    4.30
  -1  -6  -4   96.29    6.30
   1  -6   4   96.69    6.00
   1   6   5   42.10    3.40
   1  -6   5   44.30    5.20
  -1  -6  -5   48.40    5.30
   1   6   6    7.70    2.40
  -1  -6  -6    9.50    3.20
   1  -6   6    9.20    3.40
   1   6   7   42.70    4.80
  -1  -6  -7   51.69    6.20
   1  -6   7   36.80    6.00
   1   6   8   16.70    3.70
   1  -6   8   18.00    4.70
  -1  -6  -8   18.50    4.60
   1   6   9    7.00    3.10
   1  -6   9    9.70    4.40
  -1  -6  -9   -1.30    2.60
   1   6  10   35.90    5.80
   1  -6  10   33.70    6.70
  -1  -6 -10   30.00    5.60
   1  -6  11    3.20    4.10
   1  -6  12    2.40    4.20
  -1  -7  12   -2.10    4.50
  -1  -7  11   32.40    7.00
   1  -7 -10    3.50    4.10
  -1  -7  10   -0.70    3.20
  -1   7   9    1.50    2.30
  -1  -7   9   -4.80    3.00
   1  -7  -9    0.70    3.00
  -1   7   8   49.00    5.00
  -1  -7   8   41.50    6.40
   1  -7  -8   52.79    6.70
  -1   7   7   28.60    3.50
  -1  -7   7   18.60    4.60
   1  -7  -7   15.40    4.20
  -1   7   6   36.50    3.20
  -1  -7   6   30.70    4.80
   1  -7  -6   31.10    4.90
  -1   7   5  195.38    6.20
   1  -7  -5  190.58    9.70
  -1  -7   5  213.58    9.60
  -1   7   4  256.27    6.50
   1  -7  -4  252.97   10.70
  -1  -7   4  254.67    6.50
  -1  -7   4  282.37   10.40
  -1   7   3   40.40    1.60
   1  -7  -3   38.60    4.60
  -1  -7   3   43.40    2.60
  -1  -7   3   34.90    3.90
  -1   7   2  413.16    8.00
  -1   7   2  420.76    7.80
  -1  -7   2  415.16   11.70
  -1  -7   2  409.46   11.00
   1  -7  -2  416.66   13.20
   1  -7  -1   52.79    2.00
  -1  -7   1   57.69    3.70
  -1  -7   1   49.90    3.10
   1  -7  -1   55.79    4.40
   1  -7   0  128.89    5.90
  -1  -7   0  132.69    4.40
  -1  -7   0  128.29    6.00
   1  -7   0  122.09    4.30
   1   7   1    0.10    0.60
   1  -7   1   -0.70    1.30
  -1  -7  -1    2.30    2.00
   1  -7   1   -0.10    0.90
   1   7   2   61.59    2.60
   1  -7   2   63.89    3.60
   1  -7   2   72.19    4.30
  -1  -7  -2   70.89    5.20
   1   7   3  164.28    4.90
  -1  -7  -3  174.68    8.30
   1  -7   3  158.48    5.10
   1  -7   3  157.88    7.30
   1   7   4    9.70    1.70
   1  -7   4    8.40    0.80
  -1  -7  -4    8.10    3.00
   1  -7   4    9.40    2.80
   1   7   5    2.90    1.60
  -1  -7  -5    3.30    2.90
   1  -7   5    2.30    2.40
   1   7   6    1.40    1.90
   1  -7   6    3.20    2.60
  -1  -7  -6    4.00    2.90
   1   7   7   82.09    5.70
   1  -7   7  100.49    8.00
  -1  -7  -7  109.29    8.00
   1   7   8   11.50    3.20
   1  -7   8   15.00    4.40
  -1  -7  -8   10.50    3.90
   1   7   9    3.50    2.80
  -1  -7  -9    7.90    3.70
   1  -7   9    7.30    3.80
   1   7  10   32.40    6.40
  -1  -7 -10   38.10    6.60
   1  -7  10   17.70    5.80
   1  -7  11    8.80    5.10
   1  -7  12   10.60    5.40
  -1  -8  12   -5.30    3.40
   1  -8 -11   12.70    5.70
  -1  -8  11   12.90    5.40
  -1  -8  10   -3.50    3.10
   1  -8 -10   -1.10    3.50
  -1  -8   9    2.50    3.60
   1  -8  -9    6.10    3.90
  -1   8   8   14.10    3.10
  -1  -8   8   26.00    5.30
   1  -8  -8   14.30    4.60
  -1   8   7   -1.40    1.50
  -1  -8   7   -1.50    2.60
   1  -8  -7    3.40    3.70
  -1   8   6   26.30    2.80
   1  -8  -6   21.00    4.50
  -1  -8   6   27.20    4.80
  -1   8   5   40.00    2.60
   1  -8  -5   49.40    6.00
  -1  -8   5   35.10    1.50
  -1  -8   5   39.30    5.10
  -1   8   4   57.89    2.40
  -1  -8   4   58.69    2.90
  -1  -8   4   56.59    4.90
   1  -8  -4   55.89    6.10
  -1   8   3   28.90    1.20
  -1   8   3   30.90    1.30
  -1  -8   3   28.80    2.50
  -1  -8   3   29.90    3.70
   1  -8  -3   27.60    4.20
  -1   8   2  455.75    8.70
  -1  -8   2  437.16   12.20
  -1  -8   2  457.95   12.60
   1  -8  -2  464.75   14.60
  -1  -8   1  246.28    8.70
   1  -8  -1  241.78    5.80
  -1  -8   1  239.38    7.60
   1  -8  -1  244.68    9.50
   1  -8   0    0.00    0.80
  -1  -8   0    0.00    1.70
  -1  -8   0    0.40    0.80
   1  -8   0   -2.50    1.40
   1   8   1   56.69    2.60
   1  -8   1   58.49    3.60
   1  -8   1   58.99    4.10
  -1  -8  -1   59.59    4.60
   1   8   2  219.78    5.90
  -1  -8  -2  232.18    9.80
   1  -8   2  230.78    8.30
   1  -8   2  225.78    7.60
   1   8   3    0.90    0.80
  -1  -8  -3    0.40    2.20
   1  -8   3    1.60    1.30
   1  -8   3   -1.40    1.30
   1   8   4  406.76   10.10
  -1  -8  -4  395.36   14.40
   1  -8   4  403.76    9.20
   1  -8   4  401.86   13.80
   1   8   5   13.60    2.20
   1  -8   5    7.30    3.10
  -1  -8  -5   18.30    4.20
   1   8   6    1.00    1.70
  -1  -8  -6    1.50    2.90
   1  -8   6   -3.90    2.00
   1   8   7   17.00    3.10
  -1  -8  -7   15.00    4.40
   1  -8   7    8.80    3.70
   1   8   8    3.70    2.50
   1  -8   8    2.50    3.50
  -1  -8  -8    0.20    2.90
   1   8   9   -1.50    2.00
  -1  -8  -9    1.00    3.50
   1  -8   9   -0.60    3.20
  -1  -8 -10    0.80    4.00
   1  -8  10    0.00    3.30
   1  -8  11   11.60    5.10
   1  -8  12   -4.70    4.00
  -1  -9  12   17.00    6.10
  -1  -9  11    1.90    4.30
   1  -9 -11    5.30    5.00
  -1  -9  10    1.00    3.70
   1  -9 -10   -2.90    3.50
   1  -9  -9    1.20    4.30
  -1  -9   9    5.10    3.90
  -1  -9   8    4.50    3.30
   1  -9  -8    8.50    4.30
  -1   9   7   21.00    4.40
   1  -9  -7   28.30    6.10
  -1  -9   7   30.40    5.50
  -1   9   6   -0.30    1.20
   1  -9  -6    1.70    3.10
  -1  -9   6   -0.70    2.30
  -1   9   5   14.60    1.70
  -1  -9   5   11.10    3.30
   1  -9  -5    9.30    3.70
  -1  -9   5   12.90    1.40
  -1   9   4  225.58    5.20
   1  -9  -4  235.28   10.80
  -1  -9   4  229.68    6.90
  -1  -9   4  221.58    9.70
  -1  -9   3  195.88    6.90
  -1  -9   3  185.68    8.10
   1  -9  -3  185.48    9.30
  -1   9   2    5.40    0.70
  -1  -9   2    5.10    1.70
   1  -9  -2    4.50    2.40
  -1  -9   2    4.10    1.60
  -1  -9   1   14.60    2.20
   1  -9  -1   17.60    1.40
   1  -9  -1   13.30    3.30
  -1  -9   1   17.70    3.10
  -1  -9   0   42.20    4.50
   1  -9   0   37.40    4.30
   1  -9   0   39.80    2.60
  -1  -9   0   40.70    2.70
   1   9   1   33.00    2.20
   1  -9   1   35.60    3.00
  -1  -9  -1   42.60    4.80
   1  -9   1   39.90    4.10
   1   9   2   40.80    2.20
   1  -9   2   41.20    3.70
   1  -9   2   38.70    4.00
  -1  -9  -2   41.20    5.10
   1   9   3  169.98    5.10
  -1  -9  -3  177.98    9.40
   1  -9   3  178.98    6.50
   1  -9   3  177.48    8.10
   1   9   4  147.99    5.20
   1  -9   4  143.59    4.90
  -1  -9  -4  145.39    9.00
   1  -9   4  155.88    8.20
   1   9   5   61.59    3.70
  -1  -9  -5   56.29    6.80
   1  -9   5   63.29    6.70
   1   9   6   98.49    5.20
  -1  -9  -6   97.59    8.10
   1  -9   6   96.09    7.60
   1   9   7   14.10    2.90
   1  -9   7   11.40    3.80
  -1  -9  -7    4.30    3.80
   1   9   8    0.30    2.40
   1  -9   8   -2.10    2.90
  -1  -9  -8   -2.90    3.10
   1  -9   9   -1.00    3.00
  -1  -9  -9   -3.10    2.80
   1  -9  10    0.90    3.70
  -1  -9 -10   -2.80    3.20
   1  -9  11    3.00    4.80
  -1 -10  11   41.40    7.90
   1 -10 -11   19.20    6.40
  -1 -10  10   -1.90    3.20
   1 -10 -10   -5.80    4.30
  -1 -10   9   38.90    6.80
   1 -10  -9   16.90    5.40
   1 -10  -8   -0.80    3.60
  -1 -10   8    2.00    3.40
  -1 -10   7   10.70    4.00
   1 -10  -7   14.80    5.10
  -1 -10   6    8.50    3.60
   1 -10  -6   14.10    4.40
  -1  10   5   24.10    1.80
  -1 -10   5   15.80    3.80
  -1 -10   5   23.50    1.90
   1 -10  -5   26.80    5.20
  -1 -10   4    8.80    3.10
  -1 -10   4   14.70    2.20
   1 -10  -4   14.10    4.10
  -1 -10   3   32.50    3.40
  -1 -10   3   34.60    4.20
   1 -10  -3   32.60    5.10
  -1  10   2    0.90    0.50
  -1 -10   2    0.70    1.30
   1 -10  -2    1.40    2.40
  -1 -10   2   -1.00    1.60
  -1 -10   1  146.79    7.20
  -1 -10   1  147.19    6.00
   1 -10  -1  140.69    4.30
   1 -10  -1  149.88    8.10
   1 -10   0    4.60    1.40
  -1 -10   0    5.00    1.40
   1 -10   0    4.90    2.40
  -1 -10   0    5.10    2.50
   1  10   1  156.68    5.10
   1 -10   1  153.58    7.30
  -1 -10  -1  153.38    8.30
   1 -10   1  149.79    6.30
   1  10   2    1.10    0.80
   1 -10   2    4.70    2.20
   1 -10   2    3.70    1.70
  -1 -10  -2    2.50    2.80
   1  10   3    1.10    0.90
   1 -10   3   -1.20    1.60
  -1 -10  -3   -0.20    2.90
   1 -10   3   -0.20    1.40
   1  10   4    2.40    1.20
   1 -10   4    1.90    1.20
  -1 -10  -4    6.80    3.50
   1 -10   4   -3.90    2.00
   1  10   5   -1.30    1.20
   1 -10   5   -3.30    2.20
  -1 -10  -5   -2.00    3.00
   1  10   6   10.70    2.30
  -1 -10  -6   13.10    4.70
   1 -10   6    5.80    3.50
  -1 -10  -7    6.20    3.90
   1 -10   7    4.60    3.40
   1 -10   8   -0.80    3.20
  -1 -10  -8    2.00    3.80
  -1 -10  -9   -1.40    3.60
   1 -10   9   -1.10    3.10
  -1 -10 -10    6.90    5.20
   1 -10  10    9.90    5.10
   1 -10  11   -1.50    3.90
  -1 -10 -11   -0.30    4.70
  -1 -11  11    9.40    5.00
   1 -11 -11   16.60    6.40
  -1 -11  10    6.10    4.40
   1 -11 -10    5.70    5.10
   1 -11  -9   46.20    7.90
  -1 -11   9   33.90    6.60
   1 -11  -8   -2.40    3.70
  -1 -11   8    0.80    3.30
  -1 -11   7   30.30    5.60
   1 -11  -7   27.70    6.00
   1 -11  -6    0.10    3.40
  -1 -11   6    1.20    2.70
  -1 -11   5    7.40    1.60
   1 -11  -5   10.30    4.20
  -1 -11   5   12.40    3.50
  -1 -11   4    1.80    2.20
  -1 -11   4    5.50    1.80
   1 -11  -4    4.70    3.50
  -1 -11   3   53.89    4.60
  -1 -11   3   45.50    3.90
   1 -11  -3   54.49    6.40
  -1  11   2    7.40    0.90
   1 -11  -2    7.20    3.20
  -1 -11   2    4.40    2.00
  -1 -11   2    7.70    2.50
  -1 -11   1   26.60    3.00
   1 -11  -1   27.20    4.20
  -1 -11   1   31.50    4.30
   1 -11  -1   30.40    2.00
   1 -11   0   74.19    3.90
  -1 -11   0   77.99    6.00
  -1 -11   0   78.69    3.90
   1 -11   0   71.99    5.80
   1  11   1    0.50    0.90
   1 -11   1    2.90    1.60
   1 -11   1   -0.70    1.80
  -1 -11  -1   -1.50    2.40
   1  11   2   79.19    3.40
   1 -11   2   86.19    5.40
   1 -11   2   80.09    5.30
  -1 -11  -2   86.49    7.10
   1  11   3  123.29    4.20
  -1 -11  -3  103.49    8.10
   1 -11   3  119.09    7.00
   1 -11   3  125.99    6.10
   1  11   4   44.30    2.80
   1 -11   4   53.59    5.80
   1 -11   4   42.10    3.40
  -1 -11  -4   43.70    6.40
   1  11   5   10.80    1.90
   1 -11   5   11.20    3.70
  -1 -11  -5   19.40    5.00
   1 -11   6   -1.20    2.40
  -1 -11  -6    1.20    3.60
  -1 -11  -7   79.89    9.70
   1 -11   7   73.59    8.50
  -1 -11  -8    8.20    5.20
   1 -11   8    4.10    3.50
  -1 -11  -9    9.70    5.00
   1 -11   9   12.70    5.00
  -1 -11 -10   -6.50    4.30
   1 -11  10    0.70    3.80
  -1 -11 -11   -3.20    4.20
   1 -11  11    7.30    5.00
  -1 -12  11   -4.10    3.20
   1 -12 -11   -1.40    5.40
  -1 -12  10  110.99   11.90
   1 -12 -10   93.19   11.90
  -1 -12   9   11.40    4.70
   1 -12  -9   11.00    6.00
   1 -12  -8   15.40    5.80
  -1 -12   8   18.50    5.00
   1 -12  -7   26.40    6.40
  -1 -12   7   32.40    5.70
   1 -12  -6    4.10    4.50
  -1 -12   6   -2.20    2.20
  -1 -12   5   24.60    3.70
  -1 -12   5   20.90    4.20
   1 -12  -5   15.40    4.90
   1 -12  -4    7.10    3.70
  -1 -12   4    6.90    2.80
  -1 -12   4   11.80    2.30
  -1 -12   3   48.50    4.30
   1 -12  -3   56.79    6.90
  -1 -12   3   40.70    4.90
  -1  12   2   88.59    2.90
  -1 -12   2   90.09    5.90
   1 -12  -2   86.29    6.90
  -1 -12   2   83.59    5.40
   1 -12  -1   32.70    2.20
   1 -12  -1   25.40    4.70
  -1 -12   1   30.70    4.50
  -1 -12   1   27.80    3.20
  -1 -12   0    2.10    2.50
   1 -12   0    1.70    1.20
   1 -12   0    3.30    2.90
  -1 -12   0    0.20    1.10
   1  12   1   65.09    3.40
   1 -12   1   70.99    4.50
  -1 -12  -1   65.89    6.80
   1 -12   1   68.89    5.90
   1  12   2   43.10    2.60
  -1 -12  -2   40.90    5.90
   1 -12   2   40.30    4.70
   1 -12   2   36.60    4.30
   1  12   3    2.20    1.00
  -1 -12  -3    2.90    3.50
   1 -12   3    1.60    2.10
   1 -12   3    3.30    2.40
   1  12   4  125.39    4.60
  -1 -12  -4  126.09    9.50
   1 -12   4  141.59    6.10
   1 -12   4  125.29    8.10
  -1 -12  -5   -0.40    3.60
   1 -12   5    0.80    2.50
  -1 -12  -6   18.80    5.30
   1 -12   6   12.40    4.00
  -1 -12  -7    0.60    3.90
   1 -12   7    7.90    3.70
  -1 -12  -8   -0.10    4.00
   1 -12   8   -0.90    2.90
   1 -12   9   46.90    8.00
  -1 -12  -9   51.19    8.50
  -1 -12 -10    6.90    5.70
   1 -12  10   15.20    5.60
  -1 -12 -11   -4.20    4.40
   1 -12  11   -1.70    4.70
   1 -13 -11   -0.70    5.70
  -1 -13  11    8.10    5.20
  -1 -13  10   15.20    5.70
   1 -13 -10    9.50    5.90
   1 -13  -9    1.00    5.30
  -1 -13   9    0.40    3.60
   1 -13  -8    6.70    5.20
  -1 -13   8    8.10    4.20
  -1 -13   7   29.10    5.60
   1 -13  -7   27.50    6.60
  -1 -13   6   -0.60    2.40
   1 -13  -6    0.60    3.90
   1 -13  -5   -1.10    3.50
  -1 -13   5    2.00    2.70
   1 -13  -4  152.08   10.70
  -1 -13   4  147.59    6.90
  -1 -13   4  150.68    8.50
  -1 -13   3   21.40    3.60
   1 -13  -3   17.50    5.00
  -1 -13   3   18.70    3.60
  -1  13   2  137.79    4.00
  -1 -13   2  129.39    7.80
  -1 -13   2  144.39    7.10
   1 -13  -2  152.28    9.80
  -1 -13   1  265.37   11.70
   1 -13  -1  285.17    7.50
  -1 -13   1  267.37    9.30
   1 -13  -1  287.97   12.90
  -1 -13   0   74.59    6.60
   1 -13   0   77.99    6.70
   1 -13   0   69.69    4.00
  -1 -13   0   79.49    4.20
   1  13   1   19.50    2.40
   1 -13   1   11.10    3.30
  -1 -13  -1   19.30    4.50
   1 -13   1   25.30    3.30
   1  13   2   76.99    3.60
   1 -13   2   83.09    6.30
  -1 -13  -2   70.69    7.50
   1 -13   2   79.89    5.50
   1  13   3  276.37    7.30
   1 -13   3  254.87   10.10
  -1 -13  -3  289.27   13.90
   1 -13   3  270.97   11.10
   1 -13   4    1.10    1.70
   1 -13   4    0.10    2.30
  -1 -13  -4    1.90    3.90
  -1 -13  -5  143.29   10.80
   1 -13   5  123.69    8.60
  -1 -13  -6   62.59    8.60
   1 -13   6   61.49    7.60
  -1 -13  -7   -0.10    4.40
   1 -13   7    3.90    3.20
   1 -13   8    4.00    4.00
  -1 -13  -8   -1.50    4.40
   1 -13   9    3.20    4.40
  -1 -13  -9    0.20    5.60
  -1 -13 -10   -1.40    4.80
   1 -13  10   -0.20    3.90
  -1 -14  10    8.60    5.30
   1 -14 -10  -10.00    4.00
   1 -14  -9   27.30    8.00
  -1 -14   9   41.50    7.40
   1 -14  -8    0.50    4.90
  -1 -14   8    2.60    4.00
   1 -14  -7   -4.10    3.50
  -1 -14   7    0.80    2.90
   1 -14  -6    9.70    5.10
  -1 -14   6    3.60    3.10
   1 -14  -5   38.30    7.10
  -1 -14   5   34.30    5.50
   1 -14  -4   42.80    7.30
  -1 -14   4   50.29    4.90
  -1 -14   4   50.19    5.90
  -1 -14   3  184.58    8.90
  -1 -14   3  195.98    9.40
   1 -14  -3  200.48   12.10
  -1 -14   2    3.50    2.70
   1 -14  -2    1.00    3.40
  -1 -14   2   -1.20    1.60
   1 -14  -1   15.00    4.40
   1 -14  -1   21.90    2.20
  -1 -14   1   16.30    2.70
  -1 -14   1   21.80    4.50
  -1 -14   0    7.30    1.80
  -1 -14   0    9.80    3.70
   1 -14   0   10.40    3.70
   1 -14   0   11.80    2.10
   1  14   1   36.50    2.80
   1 -14   1   31.70    5.00
  -1 -14  -1   28.10    5.50
   1 -14   1   40.90    4.10
   1  14   2   26.50    2.30
   1 -14   2   30.30    4.70
   1 -14   2   29.30    4.00
  -1 -14  -2   28.10    5.80
   1 -14   3    0.00    2.10
   1 -14   3   -1.80    2.00
  -1 -14  -3    1.10    3.90
  -1 -14  -4   12.10    5.00
   1 -14   4    9.10    2.60
   1 -14   4   11.30    3.40
  -1 -14  -5    6.10    4.70
   1 -14   5    2.80    2.90
  -1 -14  -6    3.60    4.20
   1 -14   6    3.50    3.20
  -1 -14  -7    0.10    4.40
   1 -14   7    0.50    3.70
   1 -14   8   -2.50    2.80
  -1 -14  -8   -3.40    4.30
   1 -14   9    2.70    4.00
  -1 -14  -9   -3.00    4.60
   1 -14  10    3.60    4.30
  -1 -14 -10    2.10    5.40
  -1 -15  10    5.50    5.30
   1 -15 -10   12.10    6.80
  -1 -15   9   11.10    5.10
   1 -15  -9    7.80    6.60
   1 -15  -8    6.60    5.40
  -1 -15   8    0.00    3.20
  -1 -15   7    3.00    3.60
   1 -15  -7    0.50    4.50
  -1 -15   6    5.40    3.30
   1 -15  -6    9.00    5.10
  -1 -15   5   20.20    4.40
   1 -15  -5   15.40    5.70
  -1 -15   4   17.70    3.50
  -1 -15   4   21.70    4.50
   1 -15  -4   20.40    5.80
  -1 -15   3   76.59    6.20
   1 -15  -3   74.99    9.00
  -1 -15   3   84.59    6.30
  -1 -15   2   22.50    3.70
  -1 -15   2   31.00    5.10
   1 -15  -2   19.90    5.50
  -1 -15   1  104.69    5.80
   1 -15  -1   99.29    8.60
  -1 -15   1  120.89    8.30
  -1 -15   0  137.99    9.40
   1 -15   0  129.79    9.40
   1 -15   0  128.09    5.60
  -1 -15   0  132.39    5.90
   1  15   1    8.60    1.80
   1 -15   1    6.20    2.10
  -1 -15  -1   15.30    4.60
   1 -15   1   11.10    3.90
   1 -15   2    1.30    2.20
  -1 -15  -2    3.30    3.80
   1 -15   2    2.50    2.50
  -1 -15  -3   37.50    6.80
   1 -15   3   36.50    5.10
   1 -15   3   45.70    5.40
  -1 -15  -4   -0.30    3.90
   1 -15   4    3.60    3.00
   1 -15   5    2.50    2.70
  -1 -15  -5   -1.30    3.80
   1 -15   6    1.80    3.10
  -1 -15  -6    4.40    4.70
  -1 -15  -7    4.10    5.00
   1 -15   7    5.00    4.00
  -1 -15  -8   -1.80    4.50
   1 -15   8    4.80    4.30
  -1 -15  -9   -1.00    5.10
   1 -15   9    0.10    3.90
   1 -16  -9   -8.30    4.70
  -1 -16   9   -1.70    3.50
   1 -16  -8   -6.60    4.30
  -1 -16   8   -6.00    2.30
  -1 -16   7   -0.50    2.80
   1 -16  -7    0.00    4.90
  -1 -16   6   27.40    5.60
   1 -16  -6   25.00    7.00
  -1 -16   5   17.60    4.30
   1 -16  -5   14.00    5.60
  -1 -16   4    5.00    2.60
   1 -16  -4    9.40    5.30
  -1 -16   4    3.70    2.80
  -1 -16   3    0.90    2.20
   1 -16  -3   -1.70    3.70
  -1 -16   3    2.30    2.50
  -1 -16   2    1.70    2.00
   1 -16  -2    4.00    4.00
  -1 -16   2   -1.50    2.20
  -1 -16   1    7.20    3.50
   1 -16  -1    9.20    4.30
  -1 -16   1    8.30    2.30
  -1 -16   0   26.70    3.20
  -1 -16   0   23.10    5.30
   1 -16   0   29.50    5.60
   1 -16   0   32.10    3.40
   1  16   1  133.09    5.70
   1 -16   1  114.49    8.50
   1 -16   1  121.09    6.30
  -1 -16  -1  123.69    9.70
  -1 -16  -2    6.80    4.30
   1 -16   2    3.00    2.80
   1 -16   2    1.90    2.20
   1 -16   3    8.50    3.20
   1 -16   3    9.00    3.10
  -1 -16  -3   12.50    5.20
   1 -16   4    0.10    2.30
  -1 -16  -4    6.90    4.80
  -1 -16  -5   -0.10    4.30
   1 -16   5    2.70    3.10
   1 -16   6   23.60    5.20
  -1 -16  -6   16.30    6.30
   1 -16   7   15.10    4.70
  -1 -16  -7   19.40    6.60
  -1 -16  -8   17.50    6.90
   1 -16   8   12.70    4.80
  -1 -16  -9   -7.60    5.40
   1 -16   9   -1.80    4.00
   1 -17  -9    1.50    6.10
  -1 -17   9    2.80    4.20
   1 -17  -8    3.90    5.80
  -1 -17   8   -2.70    3.30
   1 -17  -7   -4.80    4.60
  -1 -17   7   -0.50    3.20
   1 -17  -6   10.40    5.90
  -1 -17   6    2.90    3.10
  -1 -17   5   53.59    7.00
   1 -17  -5   54.79    9.10
   1 -17  -4    4.80    4.80
  -1 -17   4   10.40    3.50
   1 -17  -3    3.30    4.70
  -1 -17   3    0.20    2.30
  -1 -17   3    0.00    2.60
  -1 -17   2   10.80    3.80
   1 -17  -2   15.50    5.40
  -1 -17   2   22.20    3.80
  -1 -17   1   28.70    3.80
   1 -17  -1   32.70    6.60
  -1 -17   1   31.60    5.70
   1 -17   0   -5.50    2.80
  -1 -17   0   -2.30    2.80
   1 -17   1    8.10    3.90
   1 -17   1   11.60    2.60
  -1 -17  -1    8.20    4.90
   1 -17   2   97.99    8.10
  -1 -17  -2  100.39   10.60
   1 -17   2  104.89    6.60
  -1 -17  -3   22.60    6.20
   1 -17   3    9.60    3.40
   1 -17   3   12.60    3.60
  -1 -17  -4   12.50    5.80
   1 -17   4    9.00    3.40
  -1 -17  -5   -2.50    4.20
   1 -17   5    5.70    3.60
  -1 -17  -6    5.40    5.50
   1 -17   6    8.40    3.90
   1 -17   7   16.70    5.20
  -1 -17  -7   18.00    7.10
   1 -17   8   12.70    5.60
  -1 -17  -8   13.90    6.90
  -1 -18   8   23.50    6.20
   1 -18  -8   22.70    7.80
  -1 -18   7    0.60    3.00
   1 -18  -7    0.50    5.10
   1 -18  -6   61.89    9.90
  -1 -18   6   71.69    8.50
  -1 -18   5    5.90    3.20
   1 -18  -5   -3.10    4.70
   1 -18  -4   -0.30    3.60
  -1 -18   4   -0.80    2.30
  -1 -18   3   41.60    6.10
   1 -18  -3   62.39    9.20
  -1 -18   3   55.99    6.10
  -1 -18   2   28.20    5.60
  -1 -18   2   24.60    3.90
   1 -18  -2   33.60    7.20
  -1 -18   1   12.00    4.40
   1 -18  -1   18.50    5.80
  -1 -18   1   26.20    3.70
  -1 -18   0    3.50    3.80
   1 -18   0    6.30    4.00
   1 -18   1   -2.20    2.60
  -1 -18  -1    1.30    4.00
   1 -18   2   12.50    3.20
  -1 -18  -2   16.30    5.60
   1 -18   2    6.50    3.90
  -1 -18  -3    3.60    4.40
   1 -18   3   -1.20    3.10
   1 -18   3    4.60    2.80
  -1 -18  -4    1.10    3.60
   1 -18   4   -0.90    2.50
   1 -18   5   18.60    4.80
  -1 -18  -5   28.50    7.60
   1 -18   6    2.30    3.30
  -1 -18  -6   -6.20    4.40
   1 -18   7    1.10    3.70
  -1 -18  -7   -0.40    5.20
   1 -18   8   21.60    6.50
  -1 -18  -8   23.60    7.90
  -1 -19   8    0.50    3.90
   1 -19  -8   -9.40    5.20
   1 -19  -7    5.50    6.30
  -1 -19   7    6.50    3.70
   1 -19  -6    3.10    5.50
  -1 -19   6    1.80    3.50
   1 -19  -5   -2.90    4.80
  -1 -19   5    5.90    3.80
   1 -19  -4   -1.20    4.70
  -1 -19   4   -0.90    2.40
  -1 -19   3    2.40    3.30
  -1 -19   3    4.10    2.50
   1 -19  -3   -0.40    4.50
  -1 -19   2   11.50    4.10
   1 -19  -2    6.40    5.00
  -1 -19   2   10.60    3.00
   1 -19  -1    2.30    4.20
  -1 -19   1   -2.70    2.90
  -1 -19   0   -2.00    3.10
   1 -19   0    8.70    4.70
   1 -19   1   -0.60    4.00
  -1 -19  -1   -4.30    3.10
   1 -19   2    8.10    4.40
  -1 -19  -2   23.80    6.30
   1 -19   3    0.00    2.20
  -1 -19  -3   -3.90    4.30
   1 -19   4   11.50    3.80
  -1 -19  -4   10.70    5.90
   1 -19   5    4.70    3.00
  -1 -19  -5    3.20    5.40
  -1 -19  -6   13.10    6.60
   1 -19   6   18.00    4.90
   1 -19   7    3.90    4.20
  -1 -19  -7    5.10    6.20
   1 -20  -7    7.00    6.60
  -1 -20   7    7.00    4.40
   1 -20  -6    1.20    5.90
  -1 -20   6    6.40    3.90
  -1 -20   5   14.80    4.40
   1 -20  -5   27.20    8.20
  -1 -20   4    7.00    3.10
   1 -20  -4    3.10    5.30
  -1 -20   3    3.20    2.40
   1 -20  -3   -3.80    4.00
  -1 -20   3    0.20    5.40
   1 -20  -2    0.30    4.40
  -1 -20   2   -4.80    2.80
  -1 -20   1   32.40    6.80
   1 -20  -1   32.00    7.10
   1 -20   0    4.30    4.00
  -1 -20   0   -9.40    3.20
  -1 -20  -1   56.89    9.10
   1 -20   1   29.20    6.50
   1 -20   2    2.90    3.70
  -1 -20  -2    2.20    5.00
  -1 -20  -3   23.50    7.30
   1 -20   4    5.00    3.20
  -1 -20  -4    0.40    4.80
  -1 -20  -5  -14.00    3.80
   1 -20   5    0.50    2.90
   1 -20   6    7.40    3.90
  -1 -20  -6   -6.60    4.90
  -1 -21   6    4.30    3.90
   1 -21  -6    1.00    6.30
   1 -21  -5   -1.80    5.70
  -1 -21   5    2.20    3.00
   1 -21  -4    4.30    5.60
  -1 -21   4   16.30    4.10
   1 -21  -3   -4.50    4.30
  -1 -21   2   -3.30    3.00
   1 -21  -2   -6.10    3.70
  -1 -21   1   -2.70    3.60
   1 -21  -1   -1.30    4.20
  -1 -21   0   33.40    7.30
   1 -21   0   11.20    5.50
   1 -21   1    4.20    4.40
  -1 -21  -1    8.10    5.40
   1 -21   2   15.90    5.10
  -1 -21  -2   18.20    6.50
  -1 -21  -3    1.50    5.10
  -1 -21  -4   25.80    7.80
  -1 -21  -5    3.40    6.10
   1 -21   5   12.60    4.30
  -1 -21  -6    2.80    7.30
   1 -21   6    9.30    4.00
   1 -22  -5   11.50    7.40
   1 -22  -4   -2.30    5.60
   1 -22  -3   -2.60    5.00
   1 -22  -2   12.20    6.50
  -1 -22   2   12.10    4.80
  -1 -22   1    2.00    4.00
   1 -22  -1   -0.40    4.20
   1 -22   0    1.50    4.60
  -1 -22   0    2.20    4.40
   1 -22   1   14.20    5.40
  -1 -22  -1   12.60    6.10
  -1 -22  -2   -4.90    4.60
  -1 -22  -3   14.70    6.90
  -1 -22  -4    4.10    5.90
   1 -23  -3   10.90    7.30
   1 -23  -2    0.60    5.20
  -1 -23   1    5.70    4.20
   1 -23  -1    1.50    5.50
   1 -23   0    1.90    5.20
  -1 -23   0   -4.00    3.50
   1 -23   1   22.00    6.80
  -1 -23  -1   27.10    7.30
  -1 -23  -2   -6.80    4.80
  -1 -23  -3   11.20    6.60
  -2   0  13   -3.20    3.50
  -2   0  12   57.19    8.20
  -2   0  11   -3.90    2.80
  -2   0  10   72.39    8.00
  -2   0   9   -0.20    2.20
  -2   0   8    2.00    2.40
   2   0  -8    0.10    1.80
   2   0  -7   -0.80    1.70
  -2   0   7    0.90    1.80
   2   0  -6   58.49    3.90
  -2   0   6   50.59    4.50
   2   0  -5    2.50    1.30
  -2   0   5    0.50    1.20
  -2   0   4    0.20    1.20
   2   0  -4    1.30    1.10
  -2   0   3    0.60    0.90
  -2   0   3   -1.40    0.60
  -2   0   2  188.48    5.40
  -2   0   2  190.38    5.20
  -2   0   1    0.40    0.40
  -2   0   1    0.90    0.60
  -2   0   0    0.40    0.50
   2   0   0    0.10    0.40
  -2   0  -1    0.80    0.70
   2   0   1    0.70    0.70
  -2   0  -2 9974.70  187.68
   2   0   2 9999.00  177.18
   2   0   3   -0.50    1.10
  -2   0  -3    0.10    0.80
  -2   0  -4   35.50    2.50
   2   0   4   36.30    3.70
  -2   0  -5   -1.70    0.90
   2   0   5   -0.80    1.70
   2   0   6   56.59    5.60
  -2   0  -6   51.59    3.40
   2   0   7    2.70    2.70
  -2   0  -7   -0.80    1.20
   2   0   8    9.90    3.40
   2   0   9   -0.20    2.50
   2   0  10    0.30    2.70
   2   0  11    0.40    3.80
   2   0  12   35.30    7.10
  -2   1  13   -1.20    3.70
  -2  -1  13    4.00    4.20
  -2   1  12    0.20    3.50
  -2  -1  12    6.00    3.90
  -2   1  11   26.00    5.40
  -2  -1  11   21.30    5.30
  -2   1  10   17.80    4.30
  -2  -1  10   17.70    4.70
  -2   1   9   10.70    3.70
  -2  -1   9   16.80    4.50
   2  -1  -9   14.30    3.20
   2   1  -8   35.10    3.60
  -2   1   8   41.90    5.40
   2  -1  -8   43.20    4.60
  -2  -1   8   37.20    5.20
   2   1  -7    0.20    1.50
  -2   1   7    1.10    1.90
   2  -1  -7    2.10    2.00
  -2  -1   7   -3.20    1.30
  -2   1   6   19.10    3.10
   2   1  -6   22.50    2.60
   2  -1  -6   26.20    3.30
  -2  -1   6   20.90    3.40
  -2   1   5    6.10    1.80
   2   1  -5    4.50    1.30
   2  -1  -5    2.80    1.50
  -2  -1   5    1.80    1.60
  -2   1   4    5.00    1.40
  -2  -1   4    3.70    1.50
   2  -1  -4    6.40    1.70
  -2   1   3  205.98    6.10
  -2  -1   3  220.78    6.00
  -2  -1   3  223.68    6.90
   2  -1  -3  211.08    6.70
  -2   1   2   78.89    3.30
  -2   1   2   66.59    2.60
  -2  -1   2   73.49    2.80
  -2  -1   2   74.99    3.20
  -2   1   1  915.51   18.30
  -2  -1   1  894.11   17.90
   2  -1  -1  841.72   16.50
  -2  -1   1  896.91   17.20
   2   1   0  122.19    3.50
  -2   1   0  126.09    3.70
  -2  -1   0  123.09    3.80
   2  -1   0  120.79    3.30
  -2   1  -1   45.30    2.00
   2   1   1   43.60    2.10
  -2  -1  -1   45.90    2.40
   2  -1   1   49.60    2.40
  -2   1  -2  937.61   18.80
   2   1   2  933.41   19.10
  -2  -1  -2  936.61   19.70
   2  -1   2  928.71   19.60
   2   1   3    2.40    1.30
  -2   1  -3    2.10    0.80
   2  -1   3    1.10    1.30
  -2  -1  -3    3.90    1.30
  -2   1  -4    2.90    1.00
   2   1   4    3.30    1.70
  -2  -1  -4    1.30    1.30
   2  -1   4    6.30    2.10
  -2   1  -5    1.30    0.90
   2   1   5    2.40    1.90
   2  -1   5    0.40    1.70
  -2  -1  -5   -0.70    1.30
  -2   1  -6    2.30    1.10
   2   1   6    2.90    2.00
  -2  -1  -6    1.60    1.60
   2  -1   6    2.50    2.20
   2   1   7   14.70    3.70
  -2   1  -7    8.80    1.70
   2  -1   7   12.70    3.60
  -2  -1  -7   14.60    2.60
   2   1   8   18.30    4.40
  -2  -1  -8   17.10    2.90
   2  -1   8   21.70    4.50
   2   1   9   42.40    6.40
   2  -1   9   39.40    6.20
   2   1  10    3.60    3.40
   2  -1  10    4.40    3.70
   2   1  11   27.50    6.10
   2  -1  11   23.30    5.90
   2   1  12    3.20    4.40
   2  -1  12    8.50    4.90
  -2   2  13    8.80    4.60
  -2  -2  13    8.80    4.70
  -2   2  12    6.30    4.00
  -2  -2  12    2.20    4.30
  -2   2  11   25.00    5.20
  -2  -2  11   25.60    6.00
  -2   2  10    1.10    2.80
  -2  -2  10    8.10    4.00
  -2   2   9   44.20    5.70
   2  -2  -9   36.20    5.00
  -2  -2   9   41.40    6.30
  -2   2   8  116.89    7.30
   2  -2  -8  128.09    7.30
  -2  -2   8  113.19    7.70
   2   2  -7    0.10    1.40
  -2   2   7    0.00    1.90
  -2  -2   7   -1.10    1.80
   2  -2  -7    1.20    2.10
  -2   2   6   40.80    4.10
   2   2  -6   36.90    2.70
   2  -2  -6   34.80    4.10
  -2  -2   6   38.50    4.60
   2   2  -5    5.50    1.30
  -2   2   5    5.30    1.70
  -2  -2   5    3.90    2.10
   2  -2  -5    4.70    1.80
  -2   2   4   12.20    1.80
  -2  -2   4   10.70    2.20
   2  -2  -4   16.20    2.50
  -2  -2   4   13.60    1.50
  -2   2   3   80.79    3.20
  -2  -2   3   77.59    3.00
   2  -2  -3   82.09    4.00
  -2  -2   3   87.79    4.20
  -2   2   2  133.99    3.50
  -2  -2   2  133.99    4.70
  -2  -2   2  137.19    4.10
  -2   2   1  259.27    7.00
  -2  -2   1  260.97    6.40
  -2  -2   1  260.57    6.50
   2  -2  -1  242.68    5.20
   2   2   0   31.30    1.60
  -2   2   0   26.40    1.70
   2  -2   0   27.30    1.40
  -2  -2   0   34.20    2.00
  -2   2  -1   83.89    2.90
   2   2   1   86.79    3.00
   2  -2   1   88.29    3.40
  -2  -2  -1   83.39    3.60
  -2   2  -2 1950.01   36.50
   2   2   2 1928.61   36.30
  -2  -2  -2 1887.51   38.30
   2  -2   2 1934.51   37.30
  -2   2  -3 1011.90   19.80
   2   2   3  995.00   21.10
  -2  -2  -3 1022.70   22.30
   2  -2   3  990.70   22.30
  -2   2  -4   17.00    1.40
   2   2   4   15.30    2.30
   2  -2   4   18.10    3.00
  -2  -2  -4   12.50    2.30
  -2   2  -5   58.59    2.60
   2   2   5   69.49    4.70
  -2  -2  -5   54.99    4.10
   2  -2   5   44.60    4.90
  -2   2  -6   81.39    3.20
   2   2   6   87.69    5.70
  -2  -2  -6   89.59    5.20
   2  -2   6   79.69    6.20
  -2   2  -7   62.79    3.40
   2   2   7   63.29    5.50
   2  -2   7   66.19    7.00
  -2  -2  -7   61.59    4.70
   2   2   8    3.80    2.90
  -2  -2  -8    2.30    1.90
   2  -2   8    6.00    3.70
   2   2   9   18.70    4.70
   2  -2   9   25.10    5.50
   2   2  10    4.40    3.70
   2  -2  10   11.30    4.60
   2   2  11    3.20    4.20
   2  -2  11   13.80    5.30
   2   2  12   54.89    8.30
   2  -2  12   54.29    8.80
  -2  -3  13   21.10    6.10
  -2   3  12    9.30    4.20
  -2  -3  12    3.80    3.90
  -2   3  11   23.60    5.20
  -2  -3  11   26.50    6.00
  -2   3  10   29.40    5.10
  -2  -3  10   20.10    5.00
  -2   3   9   -1.30    2.20
  -2  -3   9    1.20    3.20
   2  -3  -9   -0.70    2.70
  -2   3   8    0.90    2.00
  -2  -3   8   -0.50    2.30
   2  -3  -8    4.90    2.70
   2   3  -7   49.60    2.80
  -2   3   7   52.39    4.50
  -2  -3   7   49.50    5.60
   2  -3  -7   52.39    5.40
  -2   3   6  137.69    6.30
   2   3  -6  146.09    4.70
   2  -3  -6  140.39    7.10
  -2  -3   6  150.18    7.70
  -2   3   5  210.58    7.10
   2   3  -5  203.98    5.70
   2  -3  -5  197.58    8.10
  -2  -3   5  183.28    8.10
  -2   3   4   58.59    3.10
  -2  -3   4   59.39    2.60
  -2  -3   4   53.39    4.00
   2  -3  -4   57.29    4.10
  -2   3   3    8.30    1.10
   2  -3  -3    8.90    1.90
  -2  -3   3    6.70    1.70
  -2  -3   3    6.40    1.00
  -2   3   2   30.30    1.20
  -2  -3   2   31.00    1.80
  -2  -3   2   31.80    2.40
   2  -3  -2   27.40    2.70
  -2   3   1 1702.93   28.80
  -2  -3   1 1560.14   31.30
  -2  -3   1 1526.25   30.20
   2  -3  -1 1591.24   32.20
   2  -3  -1 1592.34   28.50
   2   3   0  129.89    3.80
  -2   3   0  132.19    4.40
   2  -3   0  130.09    3.70
  -2  -3   0  132.49    4.70
   2   3   1  668.03   13.90
  -2   3  -1  685.93   14.40
  -2  -3  -1  691.03   15.80
   2  -3   1  678.83   14.60
  -2   3  -2  340.37    7.60
   2   3   2  327.47    8.10
  -2  -3  -2  350.66    9.80
   2  -3   2  319.97    9.20
  -2   3  -3   19.50    1.20
   2   3   3   18.10    2.20
  -2  -3  -3   20.60    2.70
   2  -3   3   20.40    2.80
  -2   3  -4   19.90    1.10
   2   3   4   20.50    2.70
  -2  -3  -4   19.40    2.90
   2  -3   4   15.90    2.90
   2   3   5   28.90    3.40
  -2   3  -5   34.10    1.40
  -2  -3  -5   36.20    4.00
   2  -3   5   29.40    4.10
   2   3   6   -0.40    1.80
  -2   3  -6   -0.20    0.40
  -2  -3  -6    0.30    1.90
   2  -3   6   -2.20    1.80
   2   3   7    0.60    2.30
   2  -3   7    4.40    2.70
  -2  -3  -7    0.20    2.10
   2   3   8   59.79    6.60
   2  -3   8   44.80    6.50
  -2  -3  -8   50.19    5.30
   2   3   9    0.70    2.80
  -2  -3  -9    0.70    2.20
   2  -3   9    3.20    3.40
   2   3  10    0.20    3.00
   2  -3  10    2.30    3.50
   2   3  11   27.00    6.10
   2  -3  11   10.20    5.40
   2   3  12   -4.50    3.60
   2  -3  12    4.40    4.80
  -2  -4  13    6.60    5.00
  -2  -4  12    1.60    4.20
  -2   4  11    5.70    3.50
  -2  -4  11    1.10    3.40
  -2   4  10   -1.80    2.40
  -2  -4  10   -3.90    2.50
   2  -4 -10    1.10    2.90
  -2   4   9   23.10    4.20
  -2  -4   9   34.50    6.00
   2  -4  -9   30.50    5.10
  -2   4   8   71.49    5.50
  -2  -4   8   74.99    7.60
   2  -4  -8   78.09    6.30
  -2   4   7    5.70    2.20
   2   4  -7    5.90    1.70
   2  -4  -7    6.40    2.90
  -2  -4   7    8.90    3.30
  -2   4   6  441.56   12.40
   2   4  -6  450.75    9.80
   2  -4  -6  454.45   14.70
  -2  -4   6  440.76   14.70
  -2   4   5  326.97    9.30
  -2  -4   5  327.47   11.50
  -2  -4   5  334.37    7.90
   2  -4  -5  347.37   11.80
  -2   4   4   22.50    2.10
  -2  -4   4   20.90    1.50
  -2  -4   4   22.80    3.10
   2  -4  -4   21.40    3.20
  -2   4   3  130.59    3.60
   2  -4  -3  122.19    5.80
  -2  -4   3  124.49    4.00
  -2  -4   3  116.09    5.40
   2  -4  -2  117.69    2.40
  -2  -4   2  116.19    4.00
  -2  -4   2  119.39    4.80
   2  -4  -2  111.29    5.20
   2  -4  -2  118.69    2.50
  -2   4   1    2.70    0.50
  -2  -4   1    3.30    1.10
   2  -4  -1    3.40    0.60
   2  -4  -1    0.90    1.20
  -2  -4   1    2.60    1.00
   2  -4   0   41.00    2.10
   2  -4   0   42.80    2.80
  -2  -4   0   39.40    2.80
   2   4   1    0.40    0.70
  -2  -4  -1    2.60    1.40
   2  -4   1    3.30    1.20
  -2   4  -2  183.58    5.10
   2   4   2  197.78    5.50
   2  -4   2  181.88    6.60
  -2  -4  -2  197.98    7.20
   2   4   3   51.89    3.00
  -2   4  -3   57.89    2.10
  -2  -4  -3   57.99    4.20
   2  -4   3   54.29    4.10
   2   4   4   -0.20    1.20
   2  -4   4   -1.30    1.50
   2  -4   4    0.10    0.40
  -2  -4  -4   -0.80    1.60
   2   4   5    9.60    2.30
   2  -4   5   13.00    3.30
  -2  -4  -5   13.30    3.00
   2   4   6    1.10    2.00
  -2  -4  -6    0.30    2.00
   2  -4   6   -0.50    2.10
   2   4   7   14.40    3.20
  -2  -4  -7    8.30    3.10
   2  -4   7    9.10    3.40
   2   4   8   40.30    5.40
  -2  -4  -8   30.90    4.70
   2  -4   8   33.60    5.70
   2   4   9   22.70    4.80
  -2  -4  -9   27.90    4.60
   2  -4   9   18.90    5.00
   2   4  10    5.30    3.60
   2  -4  10    8.70    4.30
   2   4  11    2.10    3.90
   2  -4  11    6.60    4.60
   2   4  12   21.80    5.90
   2  -4  12   27.10    7.00
  -2  -5  12    2.30    4.50
  -2   5  11    8.50    4.40
  -2  -5  11    8.80    4.20
  -2   5  10   -1.90    2.10
  -2  -5  10   -0.70    3.20
   2  -5 -10    0.20    3.30
  -2   5   9   10.30    3.00
  -2  -5   9    3.20    3.70
   2  -5  -9    7.00    3.60
  -2   5   8  113.89    6.60
  -2  -5   8  104.99    8.30
   2  -5  -8  110.19    8.00
  -2   5   7  103.39    5.60
  -2  -5   7  110.29    7.60
   2  -5  -7   95.99    7.00
  -2   5   6    1.60    1.50
   2   5  -6    3.30    0.60
  -2  -5   6    2.10    2.10
   2  -5  -6   -2.20    1.90
  -2   5   5    9.40    1.70
  -2  -5   5    8.00    2.60
   2  -5  -5    8.20    2.70
  -2  -5   5    7.40    1.10
  -2   5   4    0.60    0.80
  -2  -5   4    0.80    1.70
   2  -5  -4    0.30    2.00
  -2  -5   4    0.40    0.70
  -2   5   3  634.14   12.10
  -2  -5   3  644.54   14.00
  -2  -5   3  633.64   16.10
   2  -5  -3  641.34   17.00
  -2  -5   2   49.70    3.20
  -2  -5   2   47.00    2.70
   2  -5  -2   57.19    4.00
  -2  -5   1   87.99    3.80
   2  -5  -1   98.69    4.70
   2  -5  -1   96.69    2.60
  -2  -5   1   99.39    4.30
   2  -5   0  878.71   17.70
   2  -5   0  886.51   19.70
  -2  -5   0  868.91   20.00
  -2  -5   0  883.41   17.80
   2   5   1 1193.28   23.70
  -2  -5  -1 1186.68   26.70
   2  -5   1 1242.08   25.00
   2  -5   1 1266.07   25.50
   2   5   2   11.20    1.50
   2  -5   2   15.00    2.40
   2  -5   2    9.90    1.50
  -2  -5  -2   10.50    2.20
   2   5   3  252.27    7.20
  -2  -5  -3  249.58    9.30
   2  -5   3  250.17    9.10
   2  -5   3  256.77    6.20
   2   5   4  126.79    5.20
   2  -5   4  128.69    6.80
  -2  -5  -4  116.39    6.50
   2   5   5    1.90    1.60
   2  -5   5   -0.40    2.30
  -2  -5  -5    0.40    2.00
   2   5   6  111.39    6.20
  -2  -5  -6  118.89    7.20
   2  -5   6  126.99    8.00
   2   5   7   76.79    5.80
   2  -5   7   62.79    7.00
  -2  -5  -7   75.59    6.20
   2   5   8    1.00    2.50
   2  -5   8   -0.80    2.70
  -2  -5  -8   -3.10    1.80
   2   5   9   18.00    4.20
   2  -5   9    7.70    4.20
  -2  -5  -9   18.70    4.50
   2   5  10   -0.70    2.80
   2  -5  10    4.20    4.10
   2   5  11   47.50    7.40
   2  -5  11   46.60    8.00
   2  -5  12    2.90    4.80
  -2  -6  12   12.70    5.20
  -2  -6  11   11.60    5.00
  -2   6  10    3.30    2.70
   2  -6 -10    1.90    3.60
  -2  -6  10   -4.30    2.70
  -2   6   9   80.19    5.90
  -2  -6   9   74.09    8.50
   2  -6  -9   74.19    7.90
  -2   6   8   57.99    4.70
   2  -6  -8   58.69    6.90
  -2  -6   8   53.39    6.80
  -2   6   7   19.10    2.90
  -2  -6   7   21.40    4.40
   2  -6  -7   23.40    4.50
  -2   6   6  178.58    6.50
   2  -6  -6  181.48    9.40
  -2  -6   6  182.18    9.30
  -2   6   5  131.69    4.70
  -2  -6   5  132.29    7.30
  -2  -6   5  134.99    3.90
   2  -6  -5  114.59    7.30
  -2   6   4  190.08    4.90
  -2  -6   4  187.48    8.10
  -2  -6   4  182.78    5.40
   2  -6  -4  189.98    8.70
  -2  -6   3   -1.10    0.70
   2  -6  -3    2.50    2.10
  -2  -6   3    0.70    1.40
  -2  -6   2    9.40    1.60
   2  -6  -2    4.90    1.80
  -2  -6   2    8.60    1.80
   2  -6  -1    1.30    0.60
  -2  -6   1    2.30    1.30
  -2  -6   1    2.00    1.10
   2  -6  -1    0.00    1.40
  -2  -6   0   14.20    1.60
  -2  -6   0   14.90    2.50
   2  -6   0   17.40    1.80
   2  -6   0   19.00    2.50
   2   6   1   53.69    2.60
  -2  -6  -1   51.79    4.00
   2  -6   1   54.49    3.30
   2  -6   1   51.19    3.30
   2   6   2   11.90    1.50
   2  -6   2   11.50    2.40
   2  -6   2    9.10    1.60
  -2  -6  -2   15.80    2.90
   2   6   3  108.49    4.30
  -2  -6  -3  123.39    6.70
   2  -6   3  110.49    5.90
   2  -6   3  115.49    3.90
   2   6   4   10.20    1.90
   2  -6   4   10.60    2.80
   2  -6   4    9.90    0.80
   2  -6   4    8.60    0.70
  -2  -6  -4    7.10    2.70
   2   6   5   -2.70    1.20
   2  -6   5   -0.70    1.90
  -2  -6  -5   -0.40    2.10
   2   6   6   24.60    3.50
   2  -6   6   17.70    4.00
  -2  -6  -6   26.10    4.40
   2   6   7   39.50    4.70
   2  -6   7   40.80    6.00
  -2  -6  -7   48.60    6.10
   2   6   8   14.10    3.60
   2  -6   8   12.30    4.40
  -2  -6  -8   11.50    3.90
   2   6   9   -0.20    2.40
   2  -6   9    6.30    4.10
  -2  -6  -9   -1.80    2.80
   2   6  10    7.70    4.00
   2  -6  10   10.70    4.70
  -2  -6 -10   17.10    6.70
   2   6  11   24.30    5.60
   2  -6  11   17.60    6.20
   2  -6  12   21.40    6.30
  -2  -7  12    5.90    4.70
  -2  -7  11   -5.50    2.80
   2  -7 -11   -3.50    4.10
   2  -7 -10   18.00    5.30
  -2  -7  10   10.00    4.50
  -2   7   9    3.20    3.50
   2  -7  -9    0.90    3.10
  -2  -7   9    2.50    3.40
  -2   7   8  111.09    5.90
  -2  -7   8   94.79    8.30
   2  -7  -8  107.59    8.30
  -2   7   7  122.29    5.60
  -2  -7   7  102.39    7.80
   2  -7  -7  109.39    8.10
  -2   7   6   39.60    2.90
   2  -7  -6   36.60    5.30
  -2  -7   6   35.10    5.00
  -2   7   5  209.88    5.90
   2  -7  -5  203.78   10.00
  -2  -7   5  200.98    5.40
  -2  -7   5  212.18    9.60
  -2   7   4  131.29    3.40
   2  -7  -4  131.09    7.60
  -2  -7   4  131.89    6.90
  -2  -7   4  134.89    4.60
  -2  -7   3  525.35   14.30
  -2  -7   3  503.05   12.30
   2  -7  -3  466.35   15.20
  -2  -7   2  324.57    9.40
   2  -7  -2  327.77   11.20
  -2  -7   2  306.77    9.60
  -2  -7   1   69.29    4.20
   2  -7  -1   68.39    2.40
  -2  -7   1   72.69    3.70
   2  -7  -1   68.89    4.70
   2  -7   0  142.79    4.90
  -2  -7   0  145.39    6.60
  -2  -7   0  148.29    5.00
   2  -7   0  147.19    6.40
   2   7   1   99.09    3.80
   2  -7   1   98.09    4.90
   2  -7   1  103.89    4.70
  -2  -7  -1  108.79    6.00
   2   7   2    1.20    0.90
   2  -7   2    2.60    1.30
   2  -7   2    2.20    1.60
  -2  -7  -2   -0.80    1.90
   2   7   3   29.20    2.30
   2  -7   3   30.20    2.40
  -2  -7  -3   32.30    4.10
   2  -7   3   35.80    4.10
   2   7   4  122.09    5.00
   2  -7   4  110.49    6.80
  -2  -7  -4  129.39    7.60
   2  -7   4  119.89    3.50
   2   7   5    7.90    2.10
   2  -7   5    8.60    3.00
  -2  -7  -5   17.80    3.90
   2   7   6    0.90    1.80
   2  -7   6    4.20    2.80
  -2  -7  -6    6.80    3.30
   2   7   7   22.00    3.70
   2  -7   7   23.40    4.90
  -2  -7  -7   18.70    4.60
   2   7   8    0.30    2.30
   2  -7   8   -1.60    3.30
  -2  -7  -8   -2.60    2.60
   2   7   9   -1.10    2.60
   2  -7   9    3.50    3.70
  -2  -7  -9    3.00    3.20
   2   7  10   17.30    4.70
   2  -7  10   10.00    4.80
  -2  -7 -10    9.60    4.30
   2  -7  11   -5.10    3.30
   2  -7  12   -4.80    3.70
  -2  -8  12   17.90    6.30
  -2  -8  11    4.00    4.60
   2  -8 -11    3.60    4.70
  -2  -8  10    2.40    3.80
   2  -8 -10    7.20    4.60
   2  -8  -9    9.10    4.20
  -2  -8   9   11.00    4.40
   2  -8  -8    2.80    3.30
  -2  -8   8    2.70    3.00
  -2   8   7   19.20    2.60
   2  -8  -7   18.50    4.90
  -2  -8   7    9.50    3.60
  -2   8   6   24.50    2.40
   2  -8  -6   23.20    4.70
  -2  -8   6   19.70    4.10
  -2   8   5    3.00    1.00
   2  -8  -5    6.20    3.30
  -2  -8   5    5.00    2.70
  -2  -8   5    4.40    1.00
   2  -8  -4   23.50    4.30
  -2  -8   4   27.70    3.90
  -2  -8   4   27.20    2.20
  -2  -8   3   28.20    3.60
  -2  -8   3   28.30    2.60
   2  -8  -3   34.70    4.70
   2  -8  -2  212.78    9.10
  -2  -8   2  215.08    7.70
  -2  -8   2  219.88    7.90
  -2  -8   1  359.06   10.00
   2  -8  -1  371.16    8.10
   2  -8  -1  368.96   12.20
  -2  -8   1  361.96   11.40
   2  -8   0   74.89    3.50
  -2  -8   0   71.39    3.50
  -2  -8   0   79.99    5.20
   2  -8   0   73.49    4.80
   2   8   1   99.59    3.90
   2  -8   1   96.89    5.30
  -2  -8  -1   77.49    5.30
   2  -8   1   89.99    4.60
   2   8   2   31.60    2.20
  -2  -8  -2   30.10    4.10
   2  -8   2   37.30    4.00
   2  -8   2   33.50    3.30
   2   8   3   66.19    3.30
  -2  -8  -3   74.99    6.00
   2  -8   3   74.49    5.30
   2  -8   3   75.39    3.80
   2   8   4  100.89    4.40
   2  -8   4  103.69    6.90
   2  -8   4   96.49    3.60
  -2  -8  -4   86.09    6.80
   2   8   5    1.40    1.60
  -2  -8  -5   -2.90    2.50
   2  -8   5    0.00    2.30
   2   8   6    1.30    1.80
  -2  -8  -6    6.00    3.30
   2  -8   6   -3.20    2.10
   2   8   7    1.60    2.00
  -2  -8  -7   -0.60    2.90
   2  -8   7    1.20    2.80
   2   8   8   18.90    3.90
   2  -8   8    5.50    3.70
  -2  -8  -8    9.40    4.00
   2   8   9    1.50    2.80
  -2  -8  -9    4.50    3.60
   2  -8   9    0.90    3.40
   2  -8  10   -2.00    3.30
  -2  -8 -10   -3.20    2.90
   2  -8  11   -0.70    4.10
  -2  -9  12   11.40    5.50
   2  -9 -11   -1.10    4.70
  -2  -9  11    4.20    4.10
  -2  -9  10   68.99    9.20
   2  -9 -10   79.19    9.90
  -2  -9   9    0.50    3.60
   2  -9  -9   -4.00    3.60
   2  -9  -8   13.60    4.70
  -2  -9   8   11.30    4.20
  -2  -9   7   -2.50    2.40
   2  -9  -7   -1.20    2.90
  -2   9   6   32.00    2.60
   2  -9  -6   31.40    5.50
  -2  -9   6   36.00    5.30
  -2  -9   5   17.30    1.90
  -2  -9   5   10.80    3.30
   2  -9  -5   23.40    4.80
  -2  -9   4    7.20    1.70
  -2  -9   4   13.60    3.10
   2  -9  -4    6.00    3.20
  -2  -9   3   14.70    2.30
   2  -9  -3   13.00    3.10
  -2  -9   3   20.10    3.20
  -2  -9   2   29.00    3.30
   2  -9  -2   26.80    4.20
  -2  -9   2   28.60    3.40
  -2  -9   1    0.30    2.00
   2  -9  -1    6.40    2.60
  -2  -9   1    4.00    1.40
   2  -9  -1    4.80    1.00
   2  -9   0   55.99    3.20
   2  -9   0   47.60    4.40
  -2  -9   0   47.70    4.90
  -2  -9   0   45.00    2.90
   2   9   1    0.00    0.80
  -2  -9  -1    1.00    2.20
   2  -9   1   -0.90    1.30
   2  -9   1   -0.80    1.20
   2   9   2   14.30    1.80
  -2  -9  -2   14.00    3.40
   2  -9   2   14.80    2.60
   2  -9   2   14.50    2.80
   2   9   3   15.60    1.90
   2  -9   3   14.20    3.10
  -2  -9  -3   19.30    4.00
   2  -9   3   15.00    2.40
   2   9   4   14.30    2.10
  -2  -9  -4   10.00    3.60
   2  -9   4   12.90    1.90
   2  -9   4   15.30    3.40
   2   9   5    4.00    1.70
   2  -9   5    1.40    2.70
  -2  -9  -5    3.30    3.10
   2   9   6   25.30    3.40
   2  -9   6   22.50    4.70
  -2  -9  -6   16.20    4.60
   2   9   7   57.59    5.40
  -2  -9  -7   57.49    7.50
   2  -9   7   46.10    6.80
   2   9   8   38.50    5.00
  -2  -9  -8   45.00    7.30
   2  -9   8   35.60    6.40
  -2  -9  -9   -2.60    3.00
   2  -9   9   -3.60    3.10
   2  -9  10   16.60    5.60
  -2  -9 -10    3.00    3.30
   2  -9  11    1.70    4.10
  -2 -10  12   33.10    7.40
  -2 -10  11   34.00    7.60
   2 -10 -11   19.80    6.20
  -2 -10  10   73.39    9.30
   2 -10 -10   75.19    9.60
   2 -10  -9    9.40    5.00
  -2 -10   9    7.90    4.00
   2 -10  -8    3.70    4.00
  -2 -10   8    7.20    3.90
  -2 -10   7    1.90    3.00
   2 -10  -7   -4.80    2.60
  -2 -10   6    6.50    3.50
   2 -10  -6   11.90    4.30
   2 -10  -5    1.50    3.30
  -2 -10   5    3.70    1.20
  -2 -10   5    3.40    2.50
   2 -10  -4   -1.20    2.50
  -2 -10   4   -0.40    1.10
  -2 -10   4   -0.30    1.70
   2 -10  -3   50.99    6.10
  -2 -10   3   45.10    4.60
  -2 -10   3   45.80    3.80
  -2 -10   2    3.60    1.70
   2 -10  -2   -0.50    2.30
  -2 -10   2   -0.20    1.20
  -2 -10   1    1.30    2.00
   2 -10  -1    7.70    2.80
  -2 -10   1    2.90    1.40
   2 -10  -1    5.20    1.10
   2 -10   0  204.88    9.10
  -2 -10   0  214.08    6.90
   2 -10   0  205.28    6.80
  -2 -10   0  216.08    9.40
   2  10   1   10.10    1.60
   2 -10   1    6.10    1.90
   2 -10   1    9.60    2.80
  -2 -10  -1    7.30    2.60
   2  10   2    1.00    0.90
  -2 -10  -2    7.20    3.20
   2 -10   2    3.40    2.00
   2 -10   2   -0.50    1.60
   2  10   3    0.70    1.00
   2 -10   3    0.50    1.90
   2 -10   3   -1.50    1.30
  -2 -10  -3    2.60    2.40
   2  10   4   18.90    2.30
   2 -10   4   13.30    3.60
   2 -10   4   20.30    2.40
  -2 -10  -4   16.70    4.50
   2  10   5   15.90    2.50
   2 -10   5   19.40    4.20
  -2 -10  -5   19.00    4.80
   2  10   6    7.20    2.20
  -2 -10  -6   17.50    4.80
   2 -10   6    5.80    3.60
   2  10   7    1.40    2.20
  -2 -10  -7    1.00    3.50
   2 -10   7    2.10    3.30
  -2 -10  -8    0.40    3.40
   2 -10   8   -1.20    3.50
  -2 -10  -9   -1.60    4.00
   2 -10   9   -0.40    3.60
   2 -10  10   35.70    7.70
  -2 -10 -10   29.30    7.00
   2 -10  11    4.00    4.40
  -2 -11  11   30.40    6.90
   2 -11 -11   19.20    7.30
  -2 -11  10   18.60    6.10
   2 -11 -10    6.30    5.70
   2 -11  -9   93.79   10.70
  -2 -11   9   95.69   10.20
  -2 -11   8  123.59    9.70
   2 -11  -8  126.59   11.00
  -2 -11   7    2.70    3.40
   2 -11  -7    3.80    4.10
  -2 -11   6   10.90    3.90
   2 -11  -6   14.50    4.80
   2 -11  -5  108.29    8.80
  -2 -11   5  108.49    7.70
  -2 -11   5  122.49    5.10
   2 -11  -4   62.49    7.20
  -2 -11   4   61.69    4.10
  -2 -11   4   52.39    5.70
  -2 -11   3   81.79    5.70
  -2 -11   3   83.69    5.10
   2 -11  -3  101.89    7.70
  -2  11   2  173.48    3.80
  -2 -11   2  183.18    8.10
   2 -11  -2  187.88    9.90
  -2 -11   2  173.68    7.50
   2 -11  -1   29.10    2.00
  -2 -11   1   28.10    3.10
  -2 -11   1   20.90    3.70
   2 -11  -1   24.20    4.40
   2 -11   0   57.69    5.20
   2 -11   0   57.19    3.50
  -2 -11   0   49.00    3.40
  -2 -11   0   45.70    5.20
   2  11   1   61.29    3.40
  -2 -11  -1   58.79    6.30
   2 -11   1   65.89    4.30
   2 -11   1   63.89    5.20
   2  11   2    0.40    0.90
   2 -11   2    1.80    1.90
  -2 -11  -2    1.80    2.80
   2 -11   2    1.00    1.80
   2  11   3   26.20    2.50
   2 -11   3   25.20    3.40
  -2 -11  -3   27.30    5.10
   2 -11   3   28.30    4.10
   2  11   4   10.90    1.90
   2 -11   4   10.90    2.20
  -2 -11  -4    4.20    3.30
   2 -11   4    4.00    3.00
   2  11   5   -0.50    1.30
  -2 -11  -5    0.10    2.40
   2 -11   5   -2.90    2.00
   2  11   6  178.78    7.20
  -2 -11  -6  197.18   12.00
   2 -11   6  168.88   10.70
   2 -11   7   16.10    5.00
  -2 -11  -7   17.00    5.20
  -2 -11  -8   -4.80    3.20
   2 -11   8   -6.70    2.20
  -2 -11  -9   14.40    5.80
   2 -11   9    8.80    5.10
  -2 -11 -10    2.60    4.50
   2 -11  10    4.00    4.10
   2 -11  11   -5.00    3.30
  -2 -11 -11    0.60    4.40
  -2 -12  11   14.60    5.90
   2 -12 -11    4.60    5.20
  -2 -12  10    3.80    4.00
   2 -12 -10   10.30    6.30
  -2 -12   9    4.50    3.70
   2 -12  -9   10.90    5.70
   2 -12  -8   19.60    5.60
  -2 -12   8   11.90    4.50
  -2 -12   7    9.90    3.90
   2 -12  -7   11.50    4.60
  -2 -12   6   -1.10    2.80
   2 -12  -6   -3.10    2.20
  -2 -12   5   10.30    2.10
  -2 -12   5    2.90    2.80
   2 -12  -5    7.80    4.20
  -2 -12   4    8.60    2.20
  -2 -12   4    7.60    3.20
   2 -12  -4   10.20    4.30
  -2 -12   3    4.70    2.20
   2 -12  -3    1.90    3.20
  -2 -12   3    4.40    2.10
  -2  12   2  132.49    3.20
  -2 -12   2  135.19    7.30
   2 -12  -2  129.59    8.70
  -2 -12   2  131.59    6.70
  -2 -12   1   33.30    4.60
   2 -12  -1   29.80    2.10
  -2 -12   1   27.80    3.20
   2 -12  -1   23.00    4.50
   2 -12   0  117.59    5.20
   2 -12   0  127.19    7.80
  -2 -12   0  127.19    5.50
  -2 -12   0  134.79    8.10
   2  12   1    2.20    1.20
   2 -12   1    0.20    1.50
  -2 -12  -1   -1.90    1.90
   2 -12   1   -0.10    2.50
   2  12   2   35.40    2.70
   2 -12   2   35.60    4.50
   2 -12   2   36.20    4.20
  -2 -12  -2   39.90    6.00
   2  12   3    3.30    1.30
   2 -12   3    3.60    2.50
  -2 -12  -3    5.50    3.50
   2 -12   3    5.90    2.40
   2  12   4    2.20    1.30
   2 -12   4    1.90    1.80
   2 -12   4    3.10    2.80
  -2 -12  -4    4.10    3.80
   2  12   5    2.70    1.60
   2 -12   5    5.30    3.30
  -2 -12  -5    1.30    3.70
  -2 -12  -6   26.70    6.00
   2 -12   6   30.20    5.70
   2 -12   7    9.90    4.10
  -2 -12  -7   10.70    4.90
  -2 -12  -8   -2.00    3.60
   2 -12   8    3.10    3.60
   2 -12   9   -0.90    3.80
  -2 -12  -9   -7.80    4.10
  -2 -12 -10    1.90    4.50
   2 -12  10   -1.80    3.70
  -2 -13  11   -0.60    4.20
   2 -13 -11  -12.40    4.90
   2 -13 -10   22.10    7.50
  -2 -13  10   10.00    5.10
   2 -13  -9   -1.00    5.00
  -2 -13   9    1.30    3.90
  -2 -13   8    4.90    4.00
   2 -13  -8    1.80    4.50
   2 -13  -7    0.80    4.20
  -2 -13   7    8.40    3.60
   2 -13  -6   17.10    5.50
  -2 -13   6   10.30    3.50
  -2 -13   5   -0.80    1.30
  -2 -13   5    1.80    2.60
   2 -13  -5    1.40    4.00
  -2 -13   4   -2.50    1.50
  -2 -13   4    0.20    2.20
   2 -13  -4    1.10    3.60
  -2 -13   3   21.70    3.70
   2 -13  -3   16.90    4.90
  -2 -13   3   25.80    4.00
   2 -13  -2  341.57   14.50
  -2 -13   2  341.57   11.60
  -2 -13   2  337.17   12.70
   2 -13  -1   59.79    6.70
  -2 -13   1   48.70    3.90
  -2 -13   1   56.19    6.30
   2 -13  -1   50.99    2.80
   2 -13   0    4.40    1.60
   2 -13   0    6.80    3.30
  -2 -13   0    1.80    2.70
  -2 -13   0    7.00    1.90
   2  13   1  191.68    6.70
  -2 -13  -1  175.58   10.30
   2 -13   1  204.88   10.00
   2 -13   1  190.38    7.80
   2  13   2    0.40    1.00
  -2 -13  -2    0.70    3.20
   2 -13   2   -3.50    1.40
   2 -13   2   -1.30    2.10
   2  13   3   33.80    2.60
   2 -13   3   42.30    5.30
   2 -13   3   38.20    4.50
  -2 -13  -3   32.80    5.80
   2  13   4  183.38    6.70
   2 -13   4  193.48   10.00
   2 -13   4  194.88    7.80
  -2 -13  -4  197.18   12.00
   2 -13   5  263.27   12.70
  -2 -13  -5  280.87   14.80
   2 -13   6    1.50    3.10
  -2 -13  -6    0.00    3.80
  -2 -13  -7    2.20    4.70
   2 -13   7   -3.10    2.60
   2 -13   8   10.40    4.50
  -2 -13  -8    8.40    5.00
   2 -13   9    0.60    3.70
  -2 -13  -9   -0.10    5.50
  -2 -13 -10    3.30    4.90
   2 -13  10   -4.10    3.40
  -2 -14  10   -1.10    3.70
   2 -14 -10   -5.10    5.40
   2 -14  -9   58.79    9.70
  -2 -14   9   49.60    8.20
   2 -14  -8   23.30    7.30
  -2 -14   8   27.20    5.80
   2 -14  -7   11.10    5.30
  -2 -14   7   21.50    5.40
   2 -14  -6   -4.10    3.70
  -2 -14   6    3.90    2.90
   2 -14  -5    7.90    4.70
  -2 -14   5    1.30    2.60
  -2 -14   4    6.10    2.40
  -2 -14   4   12.50    3.60
   2 -14  -4    7.00    3.80
  -2 -14   3   25.10    4.00
   2 -14  -3   29.80    5.60
  -2 -14   3   29.70    4.30
  -2 -14   2   20.70    3.40
  -2 -14   2   21.40    4.00
   2 -14  -2   23.50    5.30
  -2 -14   1   22.00    3.10
   2 -14  -1   14.80    4.40
  -2 -14   1   12.70    3.70
   2 -14  -1   15.10    1.80
  -2 -14   0   18.50    2.70
  -2 -14   0   10.40    3.80
   2 -14   0   18.30    2.50
   2 -14   0    8.00    3.80
   2  14   1    1.40    1.30
   2 -14   1    6.90    3.20
   2 -14   1    2.90    1.80
  -2 -14  -1    0.20    3.00
   2  14   2   44.80    3.10
   2 -14   2   39.80    4.80
  -2 -14  -2   40.20    6.60
   2 -14   2   37.10    5.20
   2  14   3   70.09    3.80
  -2 -14  -3   70.09    8.40
   2 -14   3   73.19    6.00
   2 -14   3   79.69    6.40
   2 -14   4   11.80    3.40
  -2 -14  -4    7.30    4.50
   2 -14   4    7.00    3.30
   2 -14   5    8.70    3.50
  -2 -14  -5   12.10    5.30
  -2 -14  -6   -1.20    4.00
   2 -14   6   -1.50    3.10
   2 -14   7   19.90    5.70
  -2 -14  -7   18.80    6.20
  -2 -14  -8    5.50    5.20
   2 -14   8   -3.00    3.40
   2 -14   9    4.70    5.00
  -2 -14  -9    9.10    5.80
  -2 -14 -10   -7.70    4.30
   2 -14  10    0.60    4.10
  -2 -15  10    7.20    4.70
   2 -15 -10    2.30    6.50
   2 -15  -9   16.70    6.80
  -2 -15   9   18.40    6.10
  -2 -15   8    1.20    3.30
   2 -15  -8   -5.80    4.60
  -2 -15   7   22.10    5.20
   2 -15  -7   14.00    5.90
   2 -15  -6    5.70    5.00
  -2 -15   6   -2.40    2.70
   2 -15  -5   25.30    6.50
  -2 -15   5   37.70    5.70
  -2 -15   4   69.59    6.00
   2 -15  -4   59.49    8.40
  -2 -15   4   55.09    5.00
  -2 -15   3    5.10    2.80
   2 -15  -3    7.50    4.30
  -2 -15   3    4.80    2.70
  -2 -15   2    4.80    2.30
   2 -15  -2   10.80    4.30
  -2 -15   2    8.50    3.10
  -2 -15   1  329.87   10.90
   2 -15  -1  346.37   15.20
  -2 -15   1  308.77   13.80
   2 -15   0   42.30    3.40
  -2 -15   0   38.70    6.40
   2 -15   0   36.30    5.80
   2  15   1   21.90    2.80
   2 -15   1   17.70    4.60
  -2 -15  -1   21.90    5.20
   2 -15   1   20.60    3.20
   2  15   2    3.30    1.40
  -2 -15  -2    7.10    4.20
   2 -15   2    3.30    3.00
   2 -15   2    4.50    2.40
  -2 -15  -3   45.00    7.30
   2 -15   3   70.99    6.30
   2 -15   3   68.79    6.50
   2 -15   4  119.49    8.50
  -2 -15  -4  132.29   10.70
  -2 -15  -5   22.30    6.20
   2 -15   5    9.60    4.10
   2 -15   6    2.90    3.50
  -2 -15  -6    4.90    4.90
  -2 -15  -7    0.80    4.80
   2 -15   7   -0.90    3.60
   2 -15   8    9.10    4.40
  -2 -15  -8    7.90    5.80
   2 -15   9    4.30    4.40
  -2 -15  -9    0.90    5.30
  -2 -16   9    3.10    4.20
   2 -16  -9   -7.10    4.80
   2 -16  -8   -5.60    5.20
  -2 -16   8    4.80    3.70
   2 -16  -7   -1.30    4.50
  -2 -16   7    0.80    3.20
   2 -16  -6    0.20    4.50
  -2 -16   6   -0.30    2.60
  -2 -16   5    3.30    2.60
   2 -16  -5   -0.10    4.40
  -2 -16   4    5.30    2.50
  -2 -16   4    2.90    2.70
   2 -16  -4    5.40    4.40
  -2 -16   3   39.50    5.00
  -2 -16   3   38.50    5.20
   2 -16  -3   45.70    7.60
   2 -16  -2    2.60    3.80
  -2 -16   2   -2.30    2.30
  -2 -16   2    3.10    2.20
  -2 -16   1    0.70    1.80
  -2 -16   1    5.70    3.20
   2 -16  -1    2.20    3.70
   2  16   0    7.10    2.10
   2 -16   0    9.20    2.40
   2 -16   0   10.00    4.10
  -2 -16   0    2.60    3.50
   2  16   1    4.10    1.70
   2 -16   1    6.80    3.50
  -2 -16  -1   13.70    4.70
   2 -16   1    3.20    2.00
  -2 -16  -2   47.00    7.40
   2 -16   2   59.59    5.20
   2 -16   2   47.00    5.90
   2 -16   3   46.40    5.90
  -2 -16  -3   46.40    7.40
   2 -16   3   53.79    6.10
   2 -16   4   22.40    4.50
  -2 -16  -4   26.10    6.50
  -2 -16  -5   -3.40    3.90
   2 -16   5   -0.20    2.90
   2 -16   6    8.80    3.90
  -2 -16  -6   -0.80    4.30
  -2 -16  -7    2.20    5.00
   2 -16   8   -2.90    3.40
  -2 -16  -8   -5.10    4.50
  -2 -16  -9    5.40    6.10
   2 -16   9    9.60    5.20
  -2 -17   9    3.20    4.10
   2 -17  -9    0.80    5.90
   2 -17  -8   24.70    7.90
  -2 -17   8   30.30    6.70
  -2 -17   7    2.70    3.60
   2 -17  -7    2.20    5.10
   2 -17  -6    4.20    4.80
  -2 -17   6    1.30    3.30
  -2 -17   5    0.30    2.40
   2 -17  -5    0.30    4.70
   2 -17  -4    2.60    4.70
  -2 -17   4    1.50    2.40
  -2 -17   4    4.50    2.90
  -2 -17   3    1.10    2.70
   2 -17  -3   -4.40    3.40
  -2 -17   3    5.80    2.70
  -2 -17   2   13.60    3.10
   2 -17  -2   13.80    5.10
  -2 -17   2   21.00    4.80
  -2 -17   1   -0.90    2.60
   2 -17  -1    0.40    3.60
  -2 -17   1    3.50    2.00
   2  17   0    2.60    1.70
   2 -17   0    0.50    3.40
  -2 -17   0    1.40    3.40
  -2 -17  -1    5.70    4.00
   2 -17   1    1.60    3.80
   2 -17   1    3.40    1.90
   2 -17   2    5.20    2.60
   2 -17   2    6.10    3.80
  -2 -17  -2   -1.80    3.60
   2 -17   3   20.80    4.20
  -2 -17  -3   22.40    6.20
   2 -17   3    8.20    3.70
   2 -17   4    2.20    2.90
  -2 -17  -4    2.20    4.60
   2 -17   5   62.19    7.80
  -2 -17  -5   65.39    9.90
   2 -17   6    0.80    2.90
  -2 -17  -6    3.50    5.00
   2 -17   7    3.10    3.80
  -2 -17  -7   -2.40    5.10
  -2 -17  -8   33.10    9.20
   2 -17   8   24.80    6.70
   2 -18  -8    1.00    5.90
  -2 -18   8    2.60    3.40
   2 -18  -7   -2.80    4.60
  -2 -18   7    1.60    3.10
  -2 -18   6   10.30    3.80
   2 -18  -6   11.00    6.00
   2 -18  -5   13.90    6.30
  -2 -18   5   10.90    3.70
  -2 -18   4   -1.30    2.30
   2 -18  -4    1.30    4.80
  -2 -18   3    2.90    2.90
  -2 -18   3    4.20    2.40
   2 -18  -3    3.80    4.60
   2 -18  -2   13.10    5.30
  -2 -18   2    5.00    2.50
  -2 -18   2   15.20    4.40
   2 -18  -1    1.00    3.70
  -2 -18   1    0.00    1.70
  -2 -18   1    4.90    3.60
  -2 -18   0   18.70    5.30
   2 -18   0   15.10    5.50
  -2 -18  -1    8.70    4.50
   2 -18   1   -5.00    2.50
   2 -18   2   63.79    7.80
   2 -18   2   85.69    6.30
  -2 -18  -2   83.89   10.10
  -2 -18  -3    9.50    5.30
   2 -18   3    0.60    4.10
   2 -18   3    5.00    3.10
   2 -18   4   28.40    5.10
  -2 -18  -4   24.40    7.00
  -2 -18  -5   -1.70    4.40
   2 -18   5   -2.40    3.00
  -2 -18  -6    8.60    6.10
   2 -18   6    3.50    3.40
   2 -18   7    2.80    3.80
  -2 -18  -7   -2.60    5.00
   2 -18   8   -3.40    3.00
  -2 -18  -8   10.70    6.90
  -2 -19   8    6.70    4.50
   2 -19  -8   -7.30    5.50
   2 -19  -7   -5.30    5.00
  -2 -19   7   -2.30    2.90
   2 -19  -6   -4.70    4.90
  -2 -19   6    1.70    3.30
   2 -19  -5    5.10    5.60
  -2 -19   5    0.70    3.00
   2 -19  -4   -1.50    5.00
  -2 -19   4    1.60    2.40
  -2 -19   3   -4.40    1.70
  -2 -19   3   -2.20    2.60
   2 -19  -3    4.60    5.00
   2 -19  -2    6.00    5.20
  -2 -19   2    5.30    3.60
  -2 -19   2   -0.10    2.10
   2 -19  -1    1.80    4.20
  -2 -19   1    2.20    3.70
  -2 -19   0    5.60    4.60
   2 -19   0    9.10    4.60
  -2 -19  -1   10.30    4.90
   2 -19   1    5.20    4.20
   2 -19   2   29.60    5.90
  -2 -19  -2   37.30    7.70
   2 -19   3   13.10    3.80
  -2 -19  -3   15.40    6.30
   2 -19   4    2.20    2.90
  -2 -19  -4    3.10    5.10
  -2 -19  -5   -5.00    4.50
   2 -19   5    0.30    2.60
   2 -19   6   16.80    5.10
  -2 -19  -6   13.60    7.10
   2 -19   7   15.20    5.50
  -2 -19  -7    7.60    6.60
  -2 -20   7    1.90    3.60
   2 -20  -7   12.70    7.50
  -2 -20   6   27.30    6.10
   2 -20  -6   32.40    8.90
   2 -20  -5   -7.30    4.60
  -2 -20   5    2.90    3.00
   2 -20  -4    0.00    5.00
  -2 -20   4   14.40    3.80
   2 -20  -3    3.70    4.90
  -2 -20   3    4.10    2.60
  -2 -20   3    2.70    3.40
  -2 -20   2    0.10    2.90
   2 -20  -2    2.30    4.40
  -2 -20   1   28.40    6.10
   2 -20  -1   29.70    7.00
  -2 -20   0   -4.90    3.10
   2 -20   0   -2.40    4.20
   2 -20   1   -7.40    3.20
  -2 -20  -1   -2.40    3.60
  -2 -20  -2    4.20    5.50
   2 -20   2   -1.10    3.70
  -2 -20  -3    3.30    5.30
   2 -20   4    2.30    2.80
  -2 -20  -4    5.80    5.70
   2 -20   5    7.90    4.00
  -2 -20  -5   -6.30    4.40
   2 -20   6   -0.70    3.30
  -2 -20  -6   -1.60    5.90
  -2 -21   6   -2.30    2.60
   2 -21  -6  -10.00    4.60
   2 -21  -5    0.10    5.60
  -2 -21   5   -2.10    2.50
  -2 -21   4   -1.80    2.40
   2 -21  -4   -2.80    4.90
   2 -21  -3   -3.30    4.70
   2 -21  -2    1.80    4.40
  -2 -21   2    5.50    4.20
   2 -21  -1    2.30    4.40
  -2 -21   1    1.00    4.30
   2 -21   0   24.20    6.50
  -2 -21   0   26.20    6.90
   2 -21   1   46.30    8.10
  -2 -21  -1   26.70    6.80
   2 -21   2   -4.20    4.00
  -2 -21  -2   -3.50    4.30
  -2 -21  -3    0.10    4.80
  -2 -21  -4   18.60    7.40
   2 -21   5    9.00    5.00
  -2 -21  -5   -3.50    5.10
  -2 -22   5   -2.80    2.50
   2 -22  -5   -0.70    6.00
   2 -22  -4   -4.90    5.10
   2 -22  -3   20.20    7.50
  -2 -22   2   11.70    4.60
   2 -22  -2    4.60    5.50
   2 -22  -1  -10.10    4.00
  -2 -22   1    4.90    4.00
   2 -22   0   38.20    8.30
  -2 -22   0   36.60    7.20
   2 -22   1   14.50    5.70
  -2 -22  -1   22.70    6.90
  -2 -22  -2   11.20    5.80
  -2 -22  -3    7.00    6.00
  -2 -22  -4   72.19   11.60
   2 -23  -3    8.60    6.70
   2 -23  -2   -6.10    5.00
  -2 -23   2   -0.70    3.90
   2 -23  -1   21.80    7.30
  -2 -23   1   19.80    6.10
  -2 -23   0   11.00    5.40
   2 -23   0   18.50    6.30
   2 -23   1   20.70    6.70
  -2 -23  -1   17.50    6.10
  -2 -23  -2    6.00    5.40
  -3   0  13   -0.40    3.70
  -3   0  12    5.80    4.20
  -3   0  11   -1.40    2.50
  -3   0  10   14.90    4.20
  -3   0   9    0.70    2.70
   3   0  -9    1.90    2.30
   3   0  -8   52.99    5.00
  -3   0   8   65.49    6.50
   3   0  -7   -0.60    1.40
  -3   0   7   -1.10    1.80
  -3   0   6  196.98    8.30
   3   0  -6  218.18    7.90
   3   0  -5   -0.80    1.10
  -3   0   5   -0.20    1.20
  -3   0   4  205.48    7.00
  -3   0   4  202.78    6.80
  -3   0   3    0.40    0.70
  -3   0   3    0.20    0.70
  -3   0   2  207.68    5.70
  -3   0   2  217.68    6.40
   3   0  -1   -0.50    0.40
  -3   0   1    0.20    0.70
  -3   0   0 1190.98   24.50
   3   0   0 1231.08   23.30
   3   0   1   -2.10    1.20
  -3   0  -1    0.80    0.80
   3   0   2  411.06   10.30
  -3   0  -2  401.16   10.10
  -3   0  -3    0.30    0.90
   3   0   3    1.30    1.30
  -3   0  -4 3214.58   62.19
   3   0   4 3235.68   62.39
   3   0   5   -0.50    1.80
  -3   0  -5    0.30    1.10
   3   0   6   39.80    4.90
  -3   0  -6   42.30    3.30
   3   0   7    1.40    2.60
  -3   0  -7   -0.60    1.10
   3   0   8   30.00    5.30
   3   0   9    0.40    2.50
   3   0  10   -1.50    3.00
   3   0  11   -2.90    3.10
   3   0  12    4.40    4.50
  -3   1  13    0.20    3.80
  -3  -1  13   -0.80    3.30
  -3   1  12   31.70    6.40
  -3  -1  12   29.80    6.20
  -3   1  11    4.70    3.50
  -3  -1  11    4.70    3.70
  -3   1  10   29.80    5.20
  -3  -1  10   32.30    5.80
  -3   1   9   43.10    5.80
   3  -1  -9   43.30    5.00
  -3  -1   9   40.90    5.60
  -3   1   8   10.70    3.30
   3   1  -8   13.40    2.70
  -3  -1   8   14.70    3.50
   3  -1  -8   10.60    3.10
   3   1  -7    5.30    1.80
  -3   1   7    3.80    2.10
  -3  -1   7   -1.60    1.60
   3  -1  -7    1.10    1.90
   3   1  -6    1.80    1.40
  -3   1   6    2.90    1.70
  -3  -1   6    1.60    1.80
   3  -1  -6   -0.20    1.50
  -3   1   5   51.99    3.70
  -3  -1   5   45.70    3.80
   3  -1  -5   49.80    3.60
  -3   1   4  667.43   15.50
  -3  -1   4  681.23   15.60
  -3  -1   4  668.83   16.20
  -3   1   3  178.48    5.40
  -3   1   3  181.28    6.20
  -3  -1   3  185.48    5.80
  -3  -1   3  173.58    6.00
  -3   1   2    2.50    0.70
  -3   1   2    1.50    0.90
  -3  -1   2    2.80    0.90
  -3  -1   2    1.10    0.70
  -3   1   1  183.78    5.70
   3  -1  -1  176.68    4.70
  -3  -1   1  186.18    5.10
  -3  -1   1  175.88    5.50
   3   1   0   -0.40    0.50
  -3   1   0    0.70    0.70
  -3  -1   0   -0.80    0.60
   3  -1   0    0.30    0.50
  -3   1  -1    2.60    0.80
   3   1   1    4.30    1.30
   3  -1   1    1.10    1.20
  -3  -1  -1    2.00    1.00
   3   1   2 1691.03   32.80
  -3   1  -2 1667.63   33.20
  -3  -1  -2 1732.43   34.10
   3  -1   2 1656.53   33.20
  -3   1  -3   35.20    2.30
   3   1   3   35.90    2.90
   3  -1   3   34.50    3.10
  -3  -1  -3   36.70    2.80
   3   1   4  336.87   10.50
  -3   1  -4  325.97    8.70
  -3  -1  -4  330.07    9.70
   3  -1   4  324.67   10.70
  -3   1  -5  122.99    4.80
   3   1   5  130.19    6.70
   3  -1   5  114.49    6.60
  -3  -1  -5  121.39    5.60
   3   1   6   54.49    5.70
  -3   1  -6   48.40    3.10
  -3  -1  -6   59.19    4.10
   3  -1   6   55.09    5.80
  -3   1  -7   12.40    2.00
   3   1   7    9.90    3.40
   3  -1   7    7.80    3.40
  -3  -1  -7   10.10    2.30
   3   1   8   10.00    3.50
  -3  -1  -8    9.70    2.40
   3  -1   8   17.40    4.70
   3   1   9   -0.30    3.00
   3  -1   9    1.70    3.20
   3   1  10   24.10    5.70
   3  -1  10   14.00    5.00
   3   1  11    5.70    4.40
   3  -1  11    1.20    3.40
   3   1  12    7.20    4.40
   3  -1  12    0.40    3.90
  -3   2  13    4.50    4.40
  -3  -2  13    7.00    4.60
  -3   2  12    9.00    4.10
  -3  -2  12    6.30    4.20
  -3   2  11   16.70    4.60
  -3  -2  11   15.40    4.90
  -3   2  10   -2.70    2.40
  -3  -2  10    1.70    3.20
  -3   2   9    1.60    2.40
  -3  -2   9    0.00    2.80
   3  -2  -9    2.60    2.70
   3   2  -8   -1.10    1.60
  -3   2   8   -1.60    1.80
  -3  -2   8    0.00    2.60
   3  -2  -8   -1.20    2.10
   3   2  -7   67.39    3.90
  -3   2   7   55.09    4.70
  -3  -2   7   63.79    5.70
   3  -2  -7   62.89    4.90
  -3   2   6  235.38    8.60
   3   2  -6  246.98    7.70
   3  -2  -6  235.98    9.20
  -3  -2   6  240.58    9.80
  -3   2   5    4.60    1.60
  -3  -2   5    4.30    1.30
   3  -2  -5    0.20    1.70
  -3  -2   5    2.30    1.90
  -3   2   4  146.69    5.20
   3  -2  -4  130.09    5.90
  -3  -2   4  141.59    6.10
  -3  -2   4  141.69    5.00
  -3   2   3    1.40    0.80
  -3   2   3    1.20    1.00
  -3  -2   3    0.30    0.70
  -3  -2   3   -1.00    0.70
  -3   2   2  258.07    7.70
  -3   2   2  249.88    5.80
  -3  -2   2  248.38    7.00
  -3  -2   2  257.57    7.10
  -3   2   1 1383.46   28.70
  -3  -2   1 1415.86   27.00
   3  -2  -1 1393.26   26.10
  -3  -2   1 1442.16   28.50
   3   2   0  192.98    5.50
  -3   2   0  206.88    6.00
  -3  -2   0  195.18    6.20
   3  -2   0  208.48    5.30
  -3   2  -1  339.97    8.40
   3   2   1  333.17    8.30
   3  -2   1  331.87    8.50
  -3  -2  -1  343.77    9.30
  -3   2  -2 1659.03   33.00
   3   2   2 1691.53   32.80
  -3  -2  -2 1722.93   34.70
   3  -2   2 1692.13   33.60
   3   2   3   76.39    4.00
  -3   2  -3   72.39    3.10
  -3  -2  -3   67.29    3.90
   3  -2   3   79.19    4.50
  -3   2  -4 1314.27   26.60
   3   2   4 1321.37   28.40
  -3  -2  -4 1351.06   29.00
   3  -2   4 1308.17   29.50
   3   2   5  289.77   10.10
  -3   2  -5  273.87    7.50
  -3  -2  -5  273.17    9.40
   3  -2   5  289.27   10.90
   3   2   6  133.29    7.20
  -3   2  -6  121.59    4.50
   3  -2   6  130.09    7.80
  -3  -2  -6  139.99    6.60
   3   2   7  117.69    7.40
  -3  -2  -7  115.89    6.30
   3  -2   7  122.79    8.20
   3   2   8   10.40    3.50
  -3  -2  -8    6.80    2.50
   3  -2   8    9.60    3.70
   3   2   9   16.80    4.60
   3  -2   9   14.40    4.70
   3   2  10   17.80    5.20
   3  -2  10   18.10    5.30
   3   2  11    4.10    4.10
   3  -2  11    3.60    4.00
   3   2  12   23.80    6.60
   3  -2  12   20.60    6.30
  -3  -3  13    8.20    5.00
  -3   3  12    0.20    3.30
  -3  -3  12    1.00    3.50
  -3   3  11   43.50    6.20
  -3  -3  11   40.00    6.90
  -3   3  10   61.09    6.70
   3  -3 -10   49.50    6.20
  -3  -3  10   44.20    6.90
  -3   3   9   16.50    3.70
  -3  -3   9   17.40    4.40
   3  -3  -9   15.80    4.10
  -3   3   8    3.90    2.20
   3  -3  -8    4.00    3.00
  -3  -3   8    6.70    3.10
   3   3  -7  104.59    4.50
  -3   3   7   97.39    5.70
   3  -3  -7  105.39    6.50
  -3  -3   7   97.59    6.80
  -3   3   6    1.70    1.50
   3   3  -6    0.30    1.00
  -3  -3   6    1.60    1.90
   3  -3  -6   -1.80    1.80
  -3   3   5   25.90    2.70
   3  -3  -5   20.10    3.10
  -3  -3   5   26.00    3.50
  -3  -3   5   24.20    2.10
  -3   3   4    3.30    1.20
  -3  -3   4    1.30    1.60
   3  -3  -4    3.70    1.80
  -3  -3   4    3.90    1.10
  -3   3   3   53.99    2.30
  -3  -3   3   56.09    2.80
  -3  -3   3   52.79    3.40
   3  -3  -3   57.99    3.80
  -3   3   2  150.68    5.80
  -3  -3   2  143.09    4.90
  -3  -3   2  145.79    5.20
   3  -3  -2  144.39    3.60
  -3   3   1   13.80    1.90
  -3  -3   1   15.70    1.70
   3  -3  -1   14.70    1.10
  -3  -3   1   14.40    1.70
  -3   3   0  322.37    8.60
   3   3   0  319.37    8.00
  -3  -3   0  320.97    8.90
   3  -3   0  334.67    7.70
  -3   3  -1  362.46    9.00
   3   3   1  368.16    8.90
  -3  -3  -1  357.36   10.00
   3  -3   1  357.36    9.10
   3   3   2  166.98    5.60
  -3   3  -2  179.98    5.20
   3  -3   2  174.38    6.30
  -3  -3  -2  181.88    6.70
   3   3   3  331.57    9.40
  -3   3  -3  348.57    8.30
   3  -3   3  356.46   10.70
  -3  -3  -3  340.57   10.50
   3   3   4  340.07   10.20
  -3   3  -4  334.07    8.10
  -3  -3  -4  358.46   11.10
   3  -3   4  330.47   11.30
  -3   3  -5   93.79    3.30
   3   3   5   86.29    5.20
   3  -3   5  100.19    6.40
  -3  -3  -5   95.09    5.60
  -3   3  -6    4.20    0.90
   3   3   6    4.00    2.20
  -3  -3  -6    4.00    1.90
   3  -3   6   10.90    3.20
   3   3   7   98.29    6.70
  -3  -3  -7  101.59    6.30
   3  -3   7  101.39    7.60
   3   3   8    0.40    2.70
  -3  -3  -8   -0.90    1.90
   3  -3   8    1.90    2.90
   3   3   9   52.99    6.80
   3  -3   9   56.49    7.50
   3   3  10   -7.10    2.50
   3  -3  10   -1.90    3.20
   3   3  11   24.70    5.40
   3  -3  11   10.70    5.50
   3   3  12    9.40    5.10
   3  -3  12    1.50    4.60
  -3  -4  13   10.60    5.10
  -3  -4  12   15.00    5.30
  -3   4  11   -1.20    2.40
  -3  -4  11    2.70    3.80
  -3   4  10   -1.00    2.30
   3  -4 -10   -2.80    2.70
  -3  -4  10   -1.70    2.80
  -3   4   9   -1.10    2.10
  -3  -4   9    0.00    2.80
   3  -4  -9   -1.50    2.50
  -3   4   8   46.10    4.90
  -3  -4   8   50.19    6.20
   3  -4  -8   46.60    5.80
   3   4  -7   21.40    2.20
  -3   4   7   21.00    3.10
   3  -4  -7   22.00    4.20
  -3  -4   7   15.60    3.80
  -3   4   6   27.50    3.10
  -3  -4   6   32.30    4.50
   3  -4  -6   30.20    4.20
  -3   4   5   16.50    2.10
   3  -4  -5   13.40    2.90
  -3  -4   5   11.20    2.60
  -3  -4   5   13.00    1.70
  -3   4   4    7.00    1.30
  -3  -4   4   10.10    1.40
   3  -4  -4    8.90    2.30
  -3  -4   4   12.30    2.50
  -3   4   3   21.40    1.30
   3  -4  -3   13.50    2.50
  -3  -4   3   21.90    1.80
  -3  -4   3   17.70    2.40
   3  -4  -2   13.80    2.30
  -3  -4   2   16.30    1.90
   3  -4  -2   20.00    1.00
  -3  -4   2   19.30    2.20
  -3   4   1  260.27    8.30
   3  -4  -1  270.87    6.00
  -3  -4   1  266.97    7.90
  -3  -4   1  263.37    7.20
  -3   4   0    1.70    1.00
   3   4   0    2.00    0.90
   3  -4   0    1.10    0.80
  -3  -4   0   -1.10    0.90
  -3   4  -1   19.40    2.00
   3   4   1   20.60    2.00
   3  -4   1   22.50    2.30
  -3  -4  -1   21.40    2.60
   3   4   2    8.70    1.50
  -3   4  -2   10.60    1.40
   3  -4   2    5.80    1.80
  -3  -4  -2    7.20    1.80
   3   4   3   30.50    2.60
  -3   4  -3   25.80    1.80
  -3  -4  -3   28.30    3.40
   3  -4   3   29.00    3.50
  -3   4  -4  111.09    3.50
   3   4   4  111.99    5.30
   3  -4   4  101.19    6.10
  -3  -4  -4  111.69    6.10
   3   4   5   12.10    2.60
  -3   4  -5   14.30    1.10
  -3  -4  -5   11.10    2.90
   3  -4   5   14.80    3.40
   3   4   6   68.59    5.10
  -3  -4  -6   60.49    5.30
   3  -4   6   64.49    6.70
   3   4   7   19.90    4.00
  -3  -4  -7   21.90    4.00
   3  -4   7   12.10    4.00
   3   4   8   37.70    5.60
  -3  -4  -8   40.30    5.00
   3  -4   8   41.80    6.40
   3   4   9    3.40    3.40
  -3  -4  -9   -0.90    2.40
   3  -4   9    0.60    3.00
   3   4  10   30.80    5.60
   3  -4  10   17.60    5.50
   3   4  11   27.50    6.00
   3  -4  11   17.70    6.00
   3   4  12   -5.70    3.70
   3  -4  12   -5.60    4.00
  -3  -5  13   42.50    8.00
  -3  -5  12    5.00    4.30
  -3  -5  11    0.00    3.80
  -3   5  10   17.70    4.00
  -3  -5  10   18.20    5.10
   3  -5 -10   15.90    4.90
  -3   5   9    5.40    2.60
  -3  -5   9    2.10    2.90
   3  -5  -9    3.90    3.10
  -3   5   8   18.90    3.30
   3  -5  -8   18.70    4.50
  -3  -5   8   15.00    4.30
  -3   5   7   44.80    3.90
   3   5  -7   53.39    2.80
   3  -5  -7   58.09    6.30
  -3  -5   7   40.10    5.50
  -3   5   6   23.80    2.80
  -3  -5   6   24.80    2.00
  -3  -5   6   20.10    3.70
   3  -5  -6   14.90    3.60
  -3   5   5   94.69    3.90
   3  -5  -5   87.99    6.00
  -3  -5   5   91.59    3.70
  -3  -5   5   88.59    5.80
  -3   5   4  148.09    4.20
   3  -5  -4  149.59    7.40
  -3  -5   4  140.19    6.70
  -3  -5   4  150.58    5.00
  -3  -5   3  285.57    9.30
   3  -5  -3  277.17   10.00
  -3  -5   3  279.47    7.90
  -3  -5   2  118.19    4.80
   3  -5  -2  128.79    3.10
   3  -5  -2  120.09    2.80
   3  -5  -2  122.19    5.90
  -3  -5   2  119.89    5.10
  -3  -5   1 1685.93   34.50
   3  -5  -1 1672.43   35.10
  -3  -5   1 1624.44   32.40
   3  -5  -1 1674.33   30.60
   3   5   0    1.20    0.80
  -3  -5   0    1.20    1.30
   3  -5   0    1.60    0.90
   3   5   1   77.39    3.40
  -3   5  -1   76.49    3.80
  -3  -5  -1   86.09    4.70
   3  -5   1   80.99    3.90
  -3   5  -2   29.20    2.10
   3   5   2   26.20    2.10
   3  -5   2   34.40    3.50
   3   5   3   30.90    2.90
  -3   5  -3   24.90    1.80
   3  -5   3   21.70    3.20
  -3  -5  -3   26.20    3.60
   3   5   4    2.50    1.50
   3  -5   4    5.20    2.30
  -3  -5  -4    4.30    2.30
   3   5   5  120.19    6.00
  -3  -5  -5  119.49    7.00
   3  -5   5  101.99    6.90
   3   5   6    1.00    1.90
  -3  -5  -6   -5.40    1.30
   3  -5   6    1.30    2.40
   3   5   7    4.40    2.40
  -3  -5  -7   -1.70    2.40
   3  -5   7   -1.00    2.30
   3   5   8    2.00    2.70
  -3  -5  -8   -2.30    2.40
   3  -5   8   -0.50    2.80
   3   5   9   10.50    3.80
   3  -5   9    7.20    4.00
  -3  -5  -9   17.40    4.00
   3   5  10    2.10    3.20
   3  -5  10   -8.40    3.20
   3   5  11   13.10    4.90
   3  -5  11   25.20    6.60
   3   5  12   -4.60    5.10
   3  -5  12    6.40    5.00
  -3  -6  12    4.80    4.30
  -3  -6  11   18.40    5.70
   3  -6 -10    5.40    3.80
  -3  -6  10    1.70    3.40
  -3   6   9   45.30    4.90
  -3  -6   9   31.30    5.80
   3  -6  -9   41.70    6.30
  -3   6   8   25.90    3.60
   3  -6  -8   25.60    4.90
  -3  -6   8   32.10    5.60
  -3   6   7   43.80    3.60
  -3  -6   7   34.00    5.20
   3  -6  -7   33.00    5.20
  -3   6   6   44.10    3.10
  -3  -6   6   49.90    5.60
   3  -6  -6   47.70    5.60
  -3  -6   6   50.69    2.60
  -3   6   5  127.69    4.20
  -3  -6   5  116.69    4.30
  -3  -6   5  119.89    7.00
   3  -6  -5  121.29    7.30
  -3   6   4   21.50    1.20
  -3  -6   4   23.10    3.40
   3  -6  -4   16.40    3.30
  -3  -6   4   19.40    2.00
   3  -6  -3    0.80    1.80
  -3  -6   3    1.30    0.90
  -3  -6   3    3.30    1.70
   3  -6  -2  237.18    9.00
  -3  -6   2  227.98    7.60
  -3  -6   2  244.78    7.90
  -3  -6   1    1.40    0.90
  -3  -6   1    4.70    1.60
   3  -6  -1    6.10    1.00
   3  -6  -1    4.80    1.80
   3   6   0  830.12   17.80
   3  -6   0  825.32   19.70
   3  -6   0  831.12   17.50
  -3  -6   0  856.61   20.30
   3   6   1   36.30    2.50
   3  -6   1   37.00    2.90
   3  -6   1   39.60    3.00
  -3  -6  -1   44.70    3.80
   3   6   2   42.90    2.70
   3  -6   2   50.49    3.10
  -3  -6  -2   42.90    3.90
   3  -6   2   47.30    3.80
   3   6   3   27.00    2.60
   3  -6   3   28.50    2.20
   3  -6   3   19.40    3.20
  -3  -6  -3   33.40    4.20
   3   6   4   46.50    3.40
   3  -6   4   57.59    5.00
   3  -6   4   54.19    2.50
  -3  -6  -4   63.19    5.40
   3   6   5   17.60    2.90
  -3  -6  -5   21.10    4.00
   3  -6   5   22.80    4.20
   3   6   6   12.40    3.00
  -3  -6  -6   16.00    3.70
   3  -6   6   16.40    3.90
   3   6   7   49.80    5.40
   3  -6   7   36.50    5.90
  -3  -6  -7   37.10    5.60
   3   6   8    7.30    3.10
   3  -6   8    9.60    4.40
  -3  -6  -8   13.00    3.80
   3   6   9    5.70    3.20
  -3  -6  -9   -4.50    2.10
   3  -6   9    3.10    3.40
   3   6  10   -0.30    3.10
   3  -6  10   -0.50    3.20
   3   6  11   25.80    5.90
   3  -6  11   27.90    7.30
  -3  -7  12    5.30    4.20
  -3  -7  11  106.09   11.20
   3  -7 -11  116.19   10.20
  -3  -7  10   13.60    4.70
   3  -7 -10   -0.60    3.60
   3  -7  -9    7.60    4.10
  -3  -7   9   26.00    5.70
  -3   7   8    4.10    2.00
  -3  -7   8    3.20    3.20
   3  -7  -8    1.30    3.00
  -3   7   7    9.40    2.00
   3  -7  -7    9.20    4.00
  -3  -7   7    4.30    3.00
  -3   7   6   32.90    2.50
  -3  -7   6   35.10    5.10
  -3  -7   6   35.90    2.20
   3  -7  -6   36.40    5.20
  -3   7   5   16.50    1.50
  -3  -7   5   17.60    2.00
   3  -7  -5    7.60    3.10
  -3  -7   5   14.90    3.30
  -3  -7   4    0.10    0.80
  -3  -7   4    0.20    1.60
   3  -7  -4   -2.10    1.90
  -3  -7   3  168.88    7.20
   3  -7  -3  155.48    7.70
  -3  -7   3  159.78    6.00
  -3  -7   2  159.98    6.40
  -3  -7   2  156.38    6.30
   3  -7  -2  169.08    7.80
  -3  -7   1  105.99    5.40
  -3  -7   1  115.89    4.80
   3  -7  -1  101.79    5.70
   3  -7  -1  110.69    3.60
   3   7   0   41.20    2.80
   3  -7   0   40.50    3.70
   3  -7   0   44.60    2.80
  -3  -7   0   46.50    3.80
   3   7   1  288.07    8.10
  -3  -7  -1  296.97   10.60
   3  -7   1  280.27    8.80
   3  -7   1  304.27    9.40
   3   7   2  111.19    4.50
   3  -7   2  120.39    5.10
  -3  -7  -2  112.69    6.70
   3  -7   2  112.79    5.90
   3   7   3   24.80    2.60
   3  -7   3   18.60    3.30
  -3  -7  -3   18.70    3.60
   3  -7   3   22.20    2.30
   3   7   4    5.30    1.60
   3  -7   4    7.20    2.60
   3  -7   4    4.90    1.20
  -3  -7  -4    5.60    2.90
   3   7   5   37.80    3.90
  -3  -7  -5   24.60    4.50
   3  -7   5   32.70    5.00
   3   7   6   -1.10    1.60
   3  -7   6    3.10    2.80
  -3  -7  -6    4.70    3.30
   3   7   7    9.70    3.00
  -3  -7  -7   11.70    3.80
   3  -7   7    6.20    3.40
   3   7   8    3.30    2.70
   3  -7   8   -0.70    3.00
  -3  -7  -8   -0.10    2.60
   3   7   9   72.49    7.50
   3  -7   9   64.69    8.50
  -3  -7  -9   69.89    7.80
   3   7  10    2.00    3.20
   3  -7  10    1.70    3.60
  -3  -7 -10    2.10    3.20
   3  -7  11   -3.70    3.60
  -3  -8  12    4.80    4.30
   3  -8 -11    0.70    4.70
  -3  -8  11    3.30    4.30
   3  -8 -10   29.00    6.20
  -3  -8  10   39.80    6.90
  -3  -8   9   97.59   10.20
   3  -8  -9   86.79    9.40
   3  -8  -8   24.60    5.70
  -3  -8   8   25.00    5.40
  -3   8   7   64.69    3.80
   3  -8  -7   76.49    7.90
  -3  -8   7   62.89    7.10
  -3   8   6   16.50    1.70
  -3  -8   6   17.30    4.20
   3  -8  -6   23.00    5.00
  -3  -8   6   18.20    1.90
   3  -8  -5   34.80    5.20
  -3  -8   5   53.69    5.80
  -3  -8   5   38.90    2.60
   3  -8  -4   -1.60    2.00
  -3  -8   4    2.30    1.20
  -3  -8   4   -1.20    1.50
  -3  -8   3    1.20    1.50
   3  -8  -3    0.90    1.70
  -3  -8   3    2.20    1.20
  -3  -8   2  102.39    5.20
   3  -8  -2   96.59    6.20
  -3  -8   2   90.89    4.90
   3  -8  -1    5.00    2.10
   3  -8  -1    0.00    0.80
  -3  -8   1    1.10    1.20
  -3  -8   1    2.00    1.80
   3   8   0  460.45   11.50
  -3  -8   0  461.25   14.00
   3  -8   0  439.86   13.40
   3  -8   0  452.25   11.20
   3   8   1  161.58    5.70
   3  -8   1  173.08    6.60
  -3  -8  -1  164.68    8.10
   3  -8   1  159.68    6.80
   3   8   2   11.80    1.80
   3  -8   2    8.00    2.00
  -3  -8  -2    4.30    2.20
   3  -8   2   13.30    2.70
   3   8   3   10.80    1.90
   3  -8   3   11.90    2.00
  -3  -8  -3    9.60    3.30
   3  -8   3    4.00    2.30
   3   8   4   22.30    2.70
   3  -8   4   14.60    3.40
   3  -8   4   19.20    2.10
  -3  -8  -4   28.60    4.70
   3   8   5   36.40    3.90
  -3  -8  -5   39.90    5.60
   3  -8   5   32.10    5.00
   3   8   6   32.40    4.00
  -3  -8  -6   40.40    6.20
   3  -8   6   37.10    5.70
   3   8   7   -2.60    1.70
   3  -8   7   -4.70    2.50
  -3  -8  -7   -3.30    2.20
   3   8   8    2.40    2.50
   3  -8   8   -1.40    2.90
  -3  -8  -8   -0.30    2.80
   3   8   9   -0.40    2.90
   3  -8   9   -2.80    2.80
  -3  -8  -9   -1.20    2.60
   3  -8  10    4.20    4.20
  -3  -8 -10   -0.90    3.10
   3  -8  11   -4.30    3.20
  -3  -9  12    7.10    4.80
   3  -9 -11    0.00    4.20
  -3  -9  11    3.70    4.00
   3  -9 -10   24.50    6.50
  -3  -9  10   15.50    5.60
   3  -9  -9    3.30    3.90
  -3  -9   9    5.50    4.00
  -3  -9   8   19.60    4.90
   3  -9  -8   26.10    5.80
  -3  -9   7    3.30    3.00
   3  -9  -7   15.60    4.70
  -3  -9   6   11.30    3.60
  -3  -9   6   18.50    2.00
   3  -9  -6   13.90    4.40
  -3  -9   5   -0.80    1.80
   3  -9  -5    1.00    2.90
  -3  -9   5    0.50    1.00
   3  -9  -4    3.90    2.90
  -3  -9   4    8.50    1.90
  -3  -9   4    6.50    2.40
   3  -9  -3   23.00    4.10
  -3  -9   3   22.20    2.90
  -3  -9   3   26.60    3.50
   3  -9  -2    0.10    2.10
  -3  -9   2   -0.10    1.10
  -3  -9   2    0.90    1.40
   3  -9  -1    4.30    1.00
  -3  -9   1    5.80    1.60
  -3  -9   1    2.10    1.70
   3  -9  -1   -0.30    1.90
   3   9   0    3.90    1.30
  -3  -9   0    4.80    2.30
   3  -9   0    2.80    1.40
   3  -9   0    6.00    2.30
   3   9   1   38.10    2.80
   3  -9   1   33.70    3.50
   3  -9   1   30.70    3.60
  -3  -9  -1   38.40    4.70
   3   9   2   84.19    4.00
  -3  -9  -2   92.59    6.70
   3  -9   2   88.39    5.00
   3  -9   2   74.89    5.00
   3   9   3   57.99    3.40
   3  -9   3   58.09    3.90
  -3  -9  -3   55.89    6.30
   3  -9   3   69.89    5.50
   3   9   4   79.89    4.20
  -3  -9  -4   93.59    7.50
   3  -9   4   80.59    3.90
   3  -9   4   86.59    6.40
   3   9   5   17.00    2.70
  -3  -9  -5   10.60    4.00
   3  -9   5   11.40    3.50
   3   9   6   22.70    3.50
  -3  -9  -6   21.70    5.10
   3  -9   6   23.80    4.80
   3   9   7    8.00    2.90
   3  -9   7   14.70    4.40
  -3  -9  -7   11.30    4.20
   3   9   8    2.20    2.50
   3  -9   8    2.80    3.50
  -3  -9  -8    3.40    3.70
  -3  -9  -9    3.20    3.40
   3  -9   9    6.60    4.40
   3  -9  10   10.90    5.80
  -3  -9 -10   11.30    4.40
   3  -9  11   -0.20    4.70
  -3 -10  12   12.20    6.00
  -3 -10  11   -4.70    3.50
   3 -10 -11   -2.80    4.70
   3 -10 -10   13.60    5.90
  -3 -10  10    9.60    4.80
   3 -10  -9    2.10    3.90
  -3 -10   9    0.70    3.40
  -3 -10   8   12.70    4.30
   3 -10  -8    9.60    5.00
   3 -10  -7   25.60    5.70
  -3 -10   7   27.50    5.40
   3 -10  -6   -3.00    2.90
  -3 -10   6    2.70    2.90
   3 -10  -5   86.89    7.70
  -3 -10   5   86.79    6.60
  -3 -10   5   90.39    4.50
  -3 -10   4   78.29    4.60
   3 -10  -4   81.79    7.10
  -3 -10   4   72.49    5.60
  -3 -10   3    7.80    2.10
   3 -10  -3   10.50    3.50
  -3 -10   3    6.40    2.10
  -3 -10   2   59.89    4.30
  -3 -10   2   54.29    4.40
   3 -10  -2   56.59    6.00
  -3 -10   1   63.39    3.90
   3 -10  -1   63.39    3.00
  -3 -10   1   74.29    5.30
   3 -10  -1   57.09    5.80
   3 -10   0   10.10    2.00
  -3 -10   0    8.80    2.60
   3 -10   0    8.70    2.70
   3  10   1    2.00    1.10
   3 -10   1    2.60    1.90
  -3 -10  -1    2.30    2.60
   3 -10   1    1.10    1.50
   3  10   2   86.89    4.10
  -3 -10  -2   93.39    6.70
   3 -10   2   85.59    5.60
   3 -10   2   89.59    5.40
   3  10   3   18.60    2.40
   3 -10   3   13.00    3.10
   3 -10   3   15.30    2.70
  -3 -10  -3   15.70    4.10
   3  10   4    9.00    2.00
  -3 -10  -4    3.80    3.50
   3 -10   4   11.40    2.10
   3 -10   4    1.90    2.40
   3  10   5   43.00    4.10
  -3 -10  -5   43.70    6.50
   3 -10   5   38.20    5.60
   3  10   6   49.60    4.80
   3 -10   6   40.80    6.20
  -3 -10  -6   42.10    6.60
   3  10   7    9.60    2.90
   3 -10   7   11.90    4.20
  -3 -10  -7   16.60    5.50
   3 -10   8    7.10    3.80
  -3 -10  -8    7.70    4.40
  -3 -10  -9   -2.00    3.50
   3 -10   9    1.30    3.80
   3 -10  10   19.60    6.40
  -3 -10 -10   10.90    4.70
   3 -10  11    3.00    5.00
  -3 -11  11   25.40    6.70
   3 -11 -11    1.60    5.10
  -3 -11  10    8.20    4.60
   3 -11 -10   11.80    5.90
   3 -11  -9   60.29    8.70
  -3 -11   9   53.19    7.90
   3 -11  -8  106.69   10.90
  -3 -11   8   86.59    9.40
   3 -11  -7   66.09    8.30
  -3 -11   7   65.59    7.70
  -3 -11   6   14.20    4.00
   3 -11  -6   22.60    5.70
  -3 -11   5   12.30    3.60
  -3 -11   5    9.90    2.10
   3 -11  -5   15.40    4.60
   3 -11  -4   -0.90    2.30
  -3 -11   4    2.50    2.20
  -3 -11   4    1.80    1.50
   3 -11  -3   17.90    4.10
  -3 -11   3   14.40    3.00
  -3 -11   3   10.00    2.60
  -3 -11   2   23.30    3.20
   3 -11  -2   16.70    4.00
  -3 -11   2   12.90    2.80
  -3 -11   1    2.10    2.20
  -3 -11   1    1.40    1.30
   3 -11  -1   -0.80    2.10
   3 -11  -1    0.00    0.90
   3  11   0    0.60    1.20
   3 -11   0    1.90    2.40
   3 -11   0    1.40    1.30
  -3 -11   0   -0.50    2.20
   3  11   1    7.80    1.70
   3 -11   1    6.30    2.80
   3 -11   1   10.10    2.30
  -3 -11  -1    5.80    3.10
   3  11   2   20.50    2.50
   3 -11   2   11.80    2.90
   3 -11   2   17.40    3.30
  -3 -11  -2   14.70    3.70
   3  11   3   -0.60    1.10
   3 -11   3    2.40    2.10
  -3 -11  -3    5.80    3.50
   3 -11   3    2.50    2.50
   3  11   4    5.00    1.60
  -3 -11  -4    3.90    3.40
   3 -11   4    1.20    2.40
   3 -11   4    2.20    1.70
   3  11   5  104.39    5.40
  -3 -11  -5  119.39    9.30
   3 -11   5  119.99    8.40
   3  11   6   36.70    4.20
   3 -11   6   38.50    6.20
  -3 -11  -6   43.10    7.10
  -3 -11  -7    2.40    4.00
   3 -11   7    8.40    4.30
   3 -11   8    3.50    3.70
  -3 -11  -8   -1.60    3.60
  -3 -11  -9   49.50    7.80
   3 -11   9   41.50    7.70
  -3 -11 -10   -6.30    3.30
   3 -11  10   -4.70    3.60
  -3 -12  11    3.60    4.60
   3 -12 -11    3.50    5.50
  -3 -12  10   18.80    5.50
   3 -12 -10    8.40    6.30
   3 -12  -9   -3.90    4.00
  -3 -12   9   -1.40    3.20
  -3 -12   8   33.40    6.10
   3 -12  -8   35.80    7.10
  -3 -12   7    2.50    3.10
   3 -12  -7    1.60    3.90
  -3 -12   6   -3.70    2.30
   3 -12  -6   -0.70    3.50
   3 -12  -5   44.00    6.80
  -3 -12   5   36.50    5.30
  -3 -12   5   42.30    3.60
  -3 -12   4   13.40    3.30
  -3 -12   4   17.60    3.00
   3 -12  -4   10.00    4.40
  -3 -12   3    1.10    1.70
   3 -12  -3    0.00    2.20
  -3 -12   3   -0.40    1.70
  -3 -12   2   16.00    3.30
   3 -12  -2   13.50    4.00
  -3 -12   2    6.80    2.10
  -3 -12   1   25.10    4.20
   3 -12  -1   26.20    2.10
   3 -12  -1   22.90    4.50
  -3 -12   1   25.50    3.30
   3  12   0    5.90    1.80
   3 -12   0    1.60    1.50
  -3 -12   0   -3.90    2.00
   3 -12   0    3.00    2.70
   3  12   1   17.00    2.40
   3 -12   1   20.00    3.10
  -3 -12  -1   17.50    4.30
   3 -12   1   19.90    3.90
   3  12   2    9.00    1.80
   3 -12   2    6.70    2.80
  -3 -12  -2    8.40    3.80
   3 -12   2    5.40    2.40
   3  12   3    0.80    1.10
   3 -12   3    3.20    2.20
  -3 -12  -3    2.90    3.40
   3 -12   3   -0.80    2.10
   3  12   4   75.49    4.20
   3 -12   4   81.39    4.90
   3 -12   4   70.69    7.40
  -3 -12  -4   82.09    8.70
   3  12   5    9.20    2.30
  -3 -12  -5    8.70    4.40
   3 -12   5    9.30    3.90
  -3 -12  -6   18.30    5.30
   3 -12   6   15.00    4.50
  -3 -12  -7   14.00    5.30
   3 -12   7   13.20    4.60
  -3 -12  -8    3.20    4.40
   3 -12   8    8.10    4.30
   3 -12   9   43.50    8.20
  -3 -12  -9   33.90    6.90
   3 -12  10   -2.70    3.70
  -3 -12 -10    4.00    4.30
   3 -13 -11   -4.70    4.80
  -3 -13  11   -3.60    3.90
   3 -13 -10   -0.30    5.10
  -3 -13  10    1.30    3.60
  -3 -13   9   17.30    5.30
   3 -13  -9    0.80    4.60
   3 -13  -8   14.60    5.70
  -3 -13   8   10.10    4.20
   3 -13  -7    0.70    3.90
  -3 -13   7    4.30    3.50
  -3 -13   6   25.80    5.20
   3 -13  -6   26.00    6.40
  -3 -13   5    7.40    3.10
   3 -13  -5    9.30    4.50
  -3 -13   5    5.20    2.00
  -3 -13   4   20.10    3.30
  -3 -13   4   15.90    3.50
   3 -13  -4   21.50    5.40
   3 -13  -3   47.90    6.90
  -3 -13   3   57.09    4.90
  -3 -13   3   43.80    4.90
  -3 -13   2   16.30    3.70
  -3 -13   2   24.40    3.40
   3 -13  -2   22.70    5.00
  -3 -13   1   44.80    5.60
  -3 -13   1   36.40    3.80
   3 -13  -1   50.89    6.50
   3 -13  -1   51.79    2.80
   3  13   0  103.89    5.40
  -3 -13   0  118.59    8.20
   3 -13   0  118.69    8.00
   3 -13   0  119.09    5.40
   3  13   1  200.28    7.30
   3 -13   1  197.88    8.20
  -3 -13  -1  182.88   10.70
   3 -13   1  187.08    9.80
   3  13   2   32.90    3.30
  -3 -13  -2   35.60    6.10
   3 -13   2   34.90    4.50
   3 -13   2   25.10    4.20
   3  13   3    3.90    1.60
   3 -13   3    2.30    2.40
  -3 -13  -3    5.00    3.10
   3 -13   3    2.80    2.40
   3  13   4   33.80    3.40
  -3 -13  -4   27.50    6.10
   3 -13   4   34.90    5.40
   3 -13   4   29.00    4.00
   3 -13   5  260.77   12.90
  -3 -13  -5  278.17   14.90
  -3 -13  -6   36.60    7.30
   3 -13   6   36.70    6.20
  -3 -13  -7   51.79    8.80
   3 -13   7   51.29    7.70
  -3 -13  -8   30.50    7.20
   3 -13   8   30.90    6.70
  -3 -13  -9   -2.10    3.70
   3 -13   9    1.20    3.80
  -3 -13 -10   11.70    5.60
   3 -13  10    7.40    5.00
   3 -14 -10    7.80    6.30
  -3 -14  10   -2.40    4.10
   3 -14  -9    3.60    4.90
  -3 -14   9    0.70    4.10
  -3 -14   8   16.80    5.00
   3 -14  -8   12.50    6.10
  -3 -14   7    1.00    2.90
   3 -14  -7    6.30    4.90
  -3 -14   6   -1.10    2.20
   3 -14  -6   -3.30    3.40
   3 -14  -5    2.60    4.30
  -3 -14   5    5.00    2.20
  -3 -14   5    6.20    3.00
  -3 -14   4    5.70    2.30
   3 -14  -4    6.60    4.30
  -3 -14   4    8.50    3.20
  -3 -14   3   32.30    4.60
   3 -14  -3   37.20    6.50
  -3 -14   3   33.30    4.50
  -3 -14   2   46.60    4.90
  -3 -14   2   56.29    6.30
   3 -14  -2   50.29    6.80
  -3 -14   1    7.40    2.20
   3 -14  -1   12.20    4.10
  -3 -14   1    4.80    3.00
   3 -14  -1    8.80    1.60
   3  14   0    1.40    1.50
   3 -14   0    0.30    2.90
  -3 -14   0    3.60    3.30
   3 -14   0    2.00    1.60
   3  14   1   63.69    4.10
   3 -14   1   71.69    5.10
   3 -14   1   73.49    6.50
  -3 -14  -1   64.19    7.60
   3  14   2    0.70    1.20
  -3 -14  -2    1.40    3.50
   3 -14   2   -1.10    2.10
   3 -14   2    4.00    2.80
   3  14   3    0.00    1.20
  -3 -14  -3    1.10    3.90
   3 -14   3   -4.80    1.80
   3 -14   3   -1.40    2.30
   3 -14   4   40.50    5.80
  -3 -14  -4   51.49    7.80
   3 -14   5    4.00    3.40
  -3 -14  -5   -0.60    3.90
  -3 -14  -6   -1.40    3.90
   3 -14   6   -1.00    3.20
   3 -14   7   10.10    4.50
  -3 -14  -7   22.00    6.80
   3 -14   8   13.60    4.90
  -3 -14  -8    3.90    5.00
  -3 -14  -9   -8.30    3.10
   3 -14   9    4.80    4.80
  -3 -15  10    4.10    4.80
   3 -15 -10   -0.80    5.50
   3 -15  -9   -1.50    5.00
  -3 -15   9    0.00    3.90
   3 -15  -8    7.40    5.60
  -3 -15   8    9.30    4.20
   3 -15  -7   39.70    8.00
  -3 -15   7   18.30    5.00
  -3 -15   6   -0.40    2.80
   3 -15  -6   -2.90    3.80
   3 -15  -5    5.30    4.50
  -3 -15   5   -2.90    2.30
  -3 -15   4    7.60    3.20
   3 -15  -4    5.50    4.20
  -3 -15   4    6.10    2.60
   3 -15  -3   51.29    7.60
  -3 -15   3   54.49    5.70
  -3 -15   3   51.69    5.70
  -3 -15   2   17.50    3.10
  -3 -15   2   18.90    4.30
   3 -15  -2   11.20    4.50
  -3 -15   1   82.99    5.40
  -3 -15   1   96.79    7.70
   3 -15  -1  101.99    8.60
   3  15   0   -0.30    1.70
  -3 -15   0    3.70    3.30
   3 -15   0   -0.10    1.50
   3 -15   0    0.80    3.10
   3  15   1  162.38    6.80
   3 -15   1  141.09    9.10
   3 -15   1  159.78    7.50
  -3 -15  -1  153.98   10.70
   3  15   2   73.29    4.40
  -3 -15  -2   65.49    8.20
   3 -15   2   82.89    6.10
   3 -15   2   70.29    6.30
   3 -15   3   30.10    5.00
  -3 -15  -3   46.10    7.40
   3 -15   3   26.40    4.60
  -3 -15  -4    0.90    4.10
   3 -15   4    4.70    3.10
  -3 -15  -5    8.10    4.60
   3 -15   5    9.50    3.70
   3 -15   6    3.70    3.40
  -3 -15  -6    2.70    4.40
  -3 -15  -7    9.60    5.50
   3 -15   7   18.30    5.20
   3 -15   8    1.90    3.50
  -3 -15  -8   -6.60    4.70
   3 -15   9    8.50    4.90
  -3 -15  -9   -0.10    4.10
  -3 -16   9    0.90    4.00
   3 -16  -9   -1.90    5.40
  -3 -16   8   -1.90    2.80
   3 -16  -8    4.40    5.80
   3 -16  -7   33.40    8.10
  -3 -16   7   32.80    6.40
   3 -16  -6   13.50    6.00
  -3 -16   6    5.30    3.50
   3 -16  -5    9.40    5.30
  -3 -16   5    7.50    3.30
  -3 -16   4   39.40    5.10
  -3 -16   4   28.90    4.60
   3 -16  -4   25.50    6.50
  -3 -16   3    3.10    2.50
   3 -16  -3    3.00    4.20
  -3 -16   3    3.00    2.30
  -3 -16   2   16.70    3.30
  -3 -16   2   15.90    3.90
   3 -16  -2   14.90    5.30
  -3 -16   1   92.19    8.10
   3 -16  -1   82.19    9.00
  -3 -16   1   88.79    5.60
   3  16   0    7.10    2.10
   3 -16   0    7.60    3.80
  -3 -16   0   11.10    4.20
   3  16   1   43.20    3.80
   3 -16   1   42.20    4.60
  -3 -16  -1   41.70    6.90
   3 -16   1   46.90    6.60
   3 -16   2    0.00    2.00
   3 -16   2   -4.70    2.30
  -3 -16  -2   -1.20    3.60
   3 -16   3   68.59    6.90
   3 -16   3   54.89    6.40
  -3 -16  -3   48.80    8.00
   3 -16   4   22.60    4.60
  -3 -16  -4   30.00    6.90
  -3 -16  -5   21.20    6.60
   3 -16   5   28.30    5.70
  -3 -16  -6   -1.90    4.40
   3 -16   6    2.30    3.10
  -3 -16  -7   -4.20    4.00
   3 -16   7    1.10    3.20
   3 -16   8    2.80    4.50
  -3 -16  -8   -2.90    4.60
   3 -16   9   -4.20    3.80
  -3 -17   9   -1.70    3.70
   3 -17  -9   -5.80    5.10
  -3 -17   8    0.60    3.60
   3 -17  -8   -5.60    4.60
   3 -17  -7   10.90    5.80
  -3 -17   7   -1.30    3.10
  -3 -17   6    3.40    2.90
   3 -17  -6    5.70    5.10
  -3 -17   5    6.00    3.10
   3 -17  -5    4.30    5.10
  -3 -17   4    1.20    2.50
   3 -17  -4    5.30    4.40
  -3 -17   4   -1.10    2.10
  -3 -17   3   32.10    5.20
  -3 -17   3   36.70    5.00
   3 -17  -3   39.40    7.30
  -3 -17   2    2.60    3.10
  -3 -17   2    4.40    2.50
   3 -17  -2    0.90    3.80
  -3 -17   1    2.80    2.00
  -3 -17   1   -2.60    2.40
   3 -17  -1   -0.50    3.70
   3  17   0   23.70    3.40
  -3 -17   0    9.90    4.30
   3 -17   0   33.10    6.20
   3  17   1    9.00    2.90
   3 -17   1    5.60    3.90
  -3 -17  -1    4.80    3.70
   3 -17   1    8.60    4.00
   3 -17   2    5.60    3.60
  -3 -17  -2    5.90    4.70
   3 -17   2    5.60    2.60
   3 -17   3    5.80    3.10
   3 -17   3    1.90    3.10
  -3 -17  -3    8.90    5.10
  -3 -17  -4    6.30    4.90
   3 -17   4    7.50    3.60
  -3 -17  -5   79.59   10.60
   3 -17   5   93.79    8.20
   3 -17   6   18.40    5.10
  -3 -17  -6   10.40    6.10
   3 -17   7   19.70    5.50
  -3 -17  -7   14.90    6.40
   3 -17   8   39.70    8.10
  -3 -17  -8   39.10    9.00
   3 -18  -8   -5.60    5.20
  -3 -18   8   13.00    5.00
  -3 -18   7    7.00    3.80
   3 -18  -7    9.90    6.50
  -3 -18   6   -2.10    2.90
   3 -18  -6    1.30    4.80
   3 -18  -5   -5.30    3.90
  -3 -18   5    3.50    2.90
  -3 -18   4    3.10    3.10
   3 -18  -4    1.20    4.40
  -3 -18   4    2.40    2.40
  -3 -18   3   14.70    3.60
   3 -18  -3    4.70    4.60
  -3 -18   3   12.80    3.80
   3 -18  -2   21.00    5.90
  -3 -18   2   14.90    3.30
  -3 -18   2   14.50    4.30
  -3 -18   1   12.10    4.40
   3 -18  -1   13.30    4.90
   3  18   0    3.00    1.90
   3 -18   0    3.60    3.80
  -3 -18   0    5.90    4.00
   3 -18   1    0.00    3.50
  -3 -18  -1    0.90    3.60
  -3 -18  -2    3.00    4.30
   3 -18   2    3.10    3.70
   3 -18   2    7.30    3.00
   3 -18   3    1.70    2.70
  -3 -18  -3    0.40    4.20
  -3 -18  -4    9.70    5.40
   3 -18   4   17.00    4.50
   3 -18   5    6.20    3.80
  -3 -18  -5   -0.30    4.30
  -3 -18  -6    5.80    5.70
   3 -18   6   -0.90    3.70
   3 -18   7   28.90    6.40
  -3 -18  -7   18.20    7.90
  -3 -19   8   -3.00    3.00
   3 -19  -8   -6.70    4.90
  -3 -19   7    3.10    4.20
   3 -19  -7    3.50    5.80
  -3 -19   6    5.50    3.30
   3 -19  -6    0.10    5.10
  -3 -19   5   -0.90    2.70
   3 -19  -5   -4.40    4.70
   3 -19  -4   11.20    5.90
  -3 -19   4   17.60    4.30
   3 -19  -3   19.40    6.40
  -3 -19   3   21.20    4.10
  -3 -19   3   32.70    5.90
   3 -19  -2   -3.50    3.80
  -3 -19   2    6.20    3.70
  -3 -19   2    3.90    2.50
   3  19  -1   15.20    3.20
  -3 -19   1   11.80    4.40
   3 -19  -1   20.10    5.80
  -3 -19   0   -2.90    3.00
   3 -19   0    0.80    4.00
   3 -19   1    2.30    3.60
  -3 -19  -1   -1.30    3.60
  -3 -19  -2    8.80    5.20
   3 -19   2   -4.50    2.40
  -3 -19  -3    7.00    5.30
   3 -19   3    2.30    2.70
  -3 -19  -4    3.70    5.20
   3 -19   4   -1.40    2.60
   3 -19   5   17.20    4.90
  -3 -19  -5   43.00    9.10
   3 -19   6   -0.70    3.40
  -3 -19  -6    0.70    5.50
  -3 -19  -7    1.70    5.80
   3 -19   7    7.20    4.30
  -3 -20   7   -1.70    2.60
   3 -20  -7   -0.10    5.80
   3 -20  -6   18.40    7.60
  -3 -20   6   22.20    5.30
  -3 -20   5    7.50    3.40
   3 -20  -5   -3.90    4.60
   3 -20  -4   23.50    7.10
  -3 -20   4   26.60    5.10
  -3 -20   3   -5.00    2.30
   3 -20  -3   -1.90    4.30
  -3 -20   3   -1.80    2.30
  -3 -20   2   -0.70    2.40
  -3 -20   2    2.00    3.50
   3 -20  -2    5.50    4.80
   3 -20  -1   -4.40    4.40
  -3 -20   1    2.30    3.90
   3 -20   0   21.30    6.00
  -3 -20   0   10.80    4.60
  -3 -20  -1    3.50    4.40
   3 -20   1    0.60    3.60
   3 -20   2   -5.70    3.30
  -3 -20  -2   -8.80    2.90
  -3 -20  -3    7.70    5.60
  -3 -20  -4    1.10    5.50
   3 -20   4    6.90    5.70
  -3 -20  -5    2.60    5.60
   3 -20   5    9.60    4.20
   3 -20   6    2.50    3.40
  -3 -20  -6    4.50    6.10
  -3 -21   6    2.80    2.90
   3 -21  -6    7.20    6.40
   3 -21  -5   -1.00    5.40
  -3 -21   5    0.50    2.70
   3 -21  -4   19.20    7.60
  -3 -21   4   22.70    4.50
  -3 -21   3   -1.90    3.60
   3 -21  -3   -6.20    4.30
  -3 -21   2   -0.60    3.40
   3 -21  -2   -3.00    4.40
  -3 -21   1   -1.80    3.80
   3 -21  -1    8.50    5.30
  -3 -21   0    8.30    4.70
   3 -21   0   10.30    5.10
  -3 -21  -1   10.80    5.70
   3 -21   1    2.50    4.70
  -3 -21  -2   43.10    8.70
  -3 -21  -3   11.30    6.30
  -3 -21  -4    7.30    6.20
  -3 -21  -5   -7.30    4.30
   3 -22  -5   -2.90    5.90
  -3 -22   5    3.40    3.00
   3 -22  -4    6.20    5.90
   3 -22  -3   40.00    8.90
  -3 -22   2   -5.70    2.30
   3 -22  -2   -6.30    4.20
  -3 -22   1    0.90    3.80
   3 -22  -1   -1.80    3.80
  -3 -22   0    1.00    4.10
   3 -22   0    1.60    4.90
   3 -22   1   10.10    5.50
  -3 -22  -1    7.20    5.30
  -3 -22  -2    4.30    5.10
  -3 -22  -3    5.00    5.30
  -3 -22  -4   -2.20    4.70
   3 -23  -3   23.60    8.50
  -3 -23   2    7.00    4.60
   3 -23  -2    6.00    5.70
  -3 -23   1    2.50    4.80
   3 -23  -1    4.50    5.30
  -3 -23   0    2.50    4.80
   3 -23   0    0.40    5.00
  -3 -23  -1   -3.70    4.80
   3 -23   1   -6.20    4.30
  -3 -23  -2   -1.00    4.70
  -4   0  13   -2.70    3.30
  -4   0  12   21.70    5.70
  -4   0  11    1.00    3.20
  -4   0  10   -1.50    2.20
   4   0  -9   -0.60    2.10
  -4   0   9    2.00    2.50
   4   0  -8  160.98    7.70
  -4   0   8  181.48    9.00
  -4   0   7    0.20    1.70
   4   0  -7   -0.20    1.60
  -4   0   6  675.23   17.60
   4   0  -6  640.04   17.00
  -4   0   5   -1.50    1.10
  -4   0   5   -0.90    1.10
  -4   0   4   16.90    2.30
  -4   0   4   11.20    2.00
  -4   0   3    1.10    0.90
  -4   0   3   -1.20    0.80
  -4   0   2  208.08    5.90
  -4   0   2  205.88    6.70
   4   0  -1   -0.50    0.50
  -4   0   1    0.20    0.60
   4   0   0    2.40    0.90
  -4   0   0    3.90    1.20
   4   0   1    0.40    0.80
  -4   0  -1   -0.30    0.70
   4   0   2  440.06   11.40
  -4   0  -2  436.76   11.40
   4   0   3    0.10    1.30
  -4   0  -3   -0.40    0.80
  -4   0  -4  959.40   21.70
   4   0   4  962.20   22.90
  -4   0  -5    0.30    1.20
   4   0   5    3.10    2.40
   4   0   6  508.75   16.50
  -4   0  -6  522.05   13.90
  -4   0  -7   -1.00    1.20
   4   0   7    0.60    2.70
   4   0   8   21.30    4.70
   4   0   9    0.40    2.90
   4   0  10   16.40    5.00
   4   0  11   -2.10    3.10
   4   0  12   23.30    6.70
  -4   1  13    0.90    3.60
  -4  -1  13   -0.80    3.60
  -4   1  12   33.10    6.10
  -4  -1  12   32.20    6.40
  -4   1  11    2.60    3.10
  -4  -1  11   11.50    4.30
  -4   1  10   25.50    4.90
  -4  -1  10   23.70    4.90
  -4   1   9   23.50    4.30
   4  -1  -9   19.70    3.90
  -4  -1   9   14.80    4.10
   4   1  -8    5.80    2.30
  -4   1   8    1.30    2.10
   4  -1  -8    1.40    2.10
  -4  -1   8    3.70    2.30
  -4   1   7    9.70    2.70
   4   1  -7   11.30    2.30
  -4  -1   7    9.00    2.80
   4  -1  -7    8.60    2.50
  -4   1   6    4.30    1.80
   4  -1  -6    0.80    1.60
  -4  -1   6    5.60    2.10
  -4   1   5   64.19    4.00
  -4  -1   5   72.19    4.60
  -4  -1   5   64.79    3.90
  -4   1   4    0.40    1.20
  -4   1   4   -0.40    0.90
  -4  -1   4    1.40    1.10
  -4  -1   4   -0.40    0.80
  -4   1   3    3.40    1.00
  -4   1   3    4.50    1.40
  -4  -1   3    6.50    1.50
  -4  -1   3    1.70    1.20
  -4   1   2    8.60    1.60
  -4  -1   2    9.70    1.50
  -4  -1   2    6.00    1.20
  -4   1   1  707.93   16.60
   4   1  -1  705.13   15.10
  -4  -1   1  734.53   16.50
   4  -1  -1  721.13   14.90
  -4   1   0   18.90    2.10
   4   1   0   16.40    1.80
   4  -1   0   15.70    1.70
  -4  -1   0   15.10    2.00
  -4   1  -1  284.47    8.20
   4   1   1  297.07    8.00
  -4  -1  -1  300.47    8.60
   4  -1   1  294.47    8.00
  -4   1  -2  387.26   10.10
   4   1   2  386.36   10.20
  -4  -1  -2  379.46   10.60
   4  -1   2  392.16   10.60
   4   1   3   -1.20    1.10
  -4   1  -3    0.80    0.90
   4  -1   3    1.10    1.40
  -4  -1  -3    0.40    0.90
  -4   1  -4  313.87    9.10
   4   1   4  322.37   10.50
  -4  -1  -4  331.27   10.00
   4  -1   4  312.07   10.90
   4   1   5   16.90    3.30
  -4   1  -5   13.60    2.10
   4  -1   5   13.50    3.10
  -4  -1  -5   15.40    2.60
  -4   1  -6   50.49    3.40
   4   1   6   46.70    5.30
   4  -1   6   53.19    5.80
  -4  -1  -6   48.30    3.90
  -4   1  -7  150.08    6.00
   4   1   7  137.79    8.60
   4  -1   7  150.68    9.20
  -4  -1  -7  148.09    6.80
   4   1   8    2.50    3.30
   4  -1   8    3.00    3.00
  -4  -1  -8    0.20    1.90
   4   1   9    9.90    4.00
   4  -1   9    8.20    4.20
   4   1  10    9.80    4.30
   4  -1  10   15.80    5.30
   4   1  11   43.30    7.60
   4  -1  11   37.30    7.10
   4   1  12    1.50    4.10
   4  -1  12   -5.30    3.70
  -4  -2  13   14.70    5.10
  -4   2  12    2.20    3.40
  -4  -2  12   -0.10    3.60
  -4   2  11    1.60    2.80
  -4  -2  11    0.40    3.30
  -4   2  10   -1.40    2.20
  -4  -2  10    0.10    2.90
   4  -2 -10   -5.30    3.30
  -4   2   9    2.60    2.50
   4  -2  -9    1.10    2.60
  -4  -2   9    5.20    3.40
   4   2  -8   34.20    3.60
  -4   2   8   29.30    4.10
   4  -2  -8   24.30    4.10
  -4  -2   8   24.90    4.50
  -4   2   7    0.20    1.60
   4   2  -7    1.40    1.50
  -4  -2   7    0.70    1.80
   4  -2  -7    1.90    2.10
  -4   2   6   87.99    5.00
   4  -2  -6   91.89    5.80
  -4  -2   6   92.49    4.70
  -4  -2   6   95.29    6.00
  -4   2   5   85.39    4.40
   4  -2  -5   77.19    5.00
  -4  -2   5   80.99    4.20
  -4  -2   5   80.89    5.00
  -4   2   4  731.43   18.20
  -4   2   4  694.93   15.60
  -4  -2   4  705.83   16.60
  -4  -2   4  733.73   17.50
  -4   2   3  705.43   14.70
  -4   2   3  700.63   17.30
  -4  -2   3  705.63   16.30
  -4  -2   3  704.93   16.20
  -4   2   2   15.30    2.10
  -4  -2   2   14.70    1.80
   4  -2  -2   13.40    1.30
  -4  -2   2   13.30    1.80
  -4   2   1  744.33   17.10
   4   2  -1  723.03   15.70
   4  -2  -1  735.33   15.00
  -4  -2   1  746.13   17.00
  -4   2   0   87.99    3.90
   4   2   0   81.89    3.50
   4  -2   0   80.89    3.30
  -4  -2   0   78.49    3.90
  -4   2  -1  157.98    5.50
   4   2   1  154.68    5.30
  -4  -2  -1  162.98    6.10
   4  -2   1  161.28    5.50
   4   2   2   -0.10    1.00
  -4   2  -2    2.00    0.90
   4  -2   2    0.00    1.10
  -4  -2  -2    0.80    1.10
   4   2   3    7.70    1.90
  -4   2  -3   10.90    1.70
  -4  -2  -3   12.60    2.10
   4  -2   3   14.10    2.50
  -4   2  -4  635.24   14.70
   4   2   4  628.94   16.40
  -4  -2  -4  635.04   16.50
   4  -2   4  621.84   17.20
  -4   2  -5  138.99    5.20
   4   2   5  141.59    7.10
   4  -2   5  142.69    7.60
  -4  -2  -5  136.79    6.50
   4   2   6    1.80    2.20
  -4   2  -6    1.20    1.00
   4  -2   6    2.90    2.80
  -4  -2  -6    0.40    1.60
   4   2   7   43.40    5.70
  -4  -2  -7   50.49    4.40
   4  -2   7   55.49    6.70
   4   2   8   22.30    4.50
  -4  -2  -8   25.30    3.80
   4  -2   8   19.60    5.20
   4   2   9    1.50    3.40
   4  -2   9    1.10    3.20
   4   2  10    3.50    3.40
   4  -2  10    9.50    4.40
   4   2  11   11.10    4.90
   4  -2  11   13.10    5.00
   4   2  12    2.50    4.40
   4  -2  12    0.10    4.40
  -4  -3  13    3.30    4.40
  -4   3  12    7.50    4.10
  -4  -3  12    7.70    4.40
  -4   3  11   79.89    7.90
  -4  -3  11   75.59    8.70
  -4   3  10   65.59    6.80
   4  -3 -10   80.79    7.80
  -4  -3  10   50.09    7.20
  -4   3   9   40.40    5.00
   4  -3  -9   49.60    6.20
  -4  -3   9   34.50    5.60
   4   3  -8   26.50    3.20
  -4   3   8   24.20    3.80
  -4  -3   8   32.10    5.00
   4  -3  -8   26.00    4.60
  -4   3   7   -0.10    1.50
   4   3  -7    0.30    1.20
  -4  -3   7   -2.90    1.60
   4  -3  -7    0.50    1.90
  -4   3   6    4.60    1.70
   4  -3  -6   -1.20    1.60
  -4  -3   6    0.90    1.90
  -4  -3   6    3.10    1.40
  -4   3   5   25.90    2.70
  -4  -3   5   29.60    3.70
  -4  -3   5   25.40    2.70
   4  -3  -5   34.10    4.00
  -4   3   4  411.86    9.90
  -4  -3   4  415.26   12.10
   4  -3  -4  406.66   12.70
  -4  -3   4  424.86   11.00
  -4   3   3  123.59    3.90
  -4   3   3  126.29    5.90
  -4  -3   3  127.29    5.00
  -4  -3   3  128.79    5.40
  -4   3   2  246.88    8.30
  -4  -3   2  244.98    7.60
  -4  -3   2  242.08    7.30
   4  -3  -2  246.58    6.00
   4   3  -1    1.20    0.80
  -4   3   1    1.60    1.10
   4  -3  -1    0.70    0.60
  -4  -3   1    2.40    1.10
  -4   3   0   73.09    3.70
   4   3   0   75.89    3.50
  -4  -3   0   80.49    4.10
   4  -3   0   74.19    3.20
  -4   3  -1   20.60    2.20
   4   3   1   23.40    2.10
   4  -3   1   33.60    2.50
   4   3   2   57.09    3.20
  -4   3  -2   55.19    3.00
   4  -3   2   51.69    3.50
  -4  -3  -2   55.29    3.80
   4   3   3  152.38    6.00
  -4   3  -3  147.79    5.10
   4  -3   3  155.18    6.80
  -4  -3  -3  147.39    6.60
   4   3   4   18.20    2.80
  -4   3  -4   17.40    1.90
  -4  -3  -4   20.00    3.00
   4  -3   4   12.40    2.90
   4   3   5   19.80    3.20
  -4   3  -5   20.50    2.10
   4  -3   5   17.10    3.50
  -4  -3  -5   21.00    3.20
   4   3   6   16.20    3.50
  -4   3  -6   19.30    2.00
  -4  -3  -6   13.70    2.90
   4  -3   6   12.60    3.60
   4   3   7   12.20    3.40
   4  -3   7    5.60    3.40
  -4  -3  -7    7.30    2.80
   4   3   8    2.00    2.80
  -4  -3  -8    0.50    2.10
   4  -3   8    1.10    3.20
   4   3   9    2.50    3.30
   4  -3   9   -3.90    2.30
   4   3  10    7.80    4.30
   4  -3  10    3.50    3.70
   4   3  11   14.10    5.30
   4  -3  11   14.60    5.90
   4   3  12   -0.90    3.90
   4  -3  12    9.50    5.10
  -4  -4  13    4.30    4.10
  -4  -4  12   24.60    6.00
  -4   4  11   -1.40    2.40
  -4  -4  11   -2.50    3.00
  -4   4  10    3.10    2.70
   4  -4 -10   -0.80    2.90
  -4  -4  10    1.60    3.20
  -4   4   9   57.79    5.70
  -4  -4   9   48.50    6.60
   4  -4  -9   63.79    7.10
  -4   4   8    6.20    2.30
   4  -4  -8    8.20    3.40
  -4  -4   8    1.40    3.00
   4   4  -7    0.70    1.10
  -4   4   7    0.00    1.50
  -4  -4   7   -2.40    1.90
   4  -4  -7   -0.50    2.10
  -4   4   6   17.70    2.40
   4  -4  -6   16.40    3.40
  -4  -4   6   15.80    2.20
  -4  -4   6   18.00    3.60
  -4   4   5    0.00    0.90
  -4  -4   5    3.20    1.30
  -4  -4   5    0.80    1.60
   4  -4  -5    4.10    2.20
  -4   4   4  113.39    3.80
   4  -4  -4  121.89    6.40
  -4  -4   4  106.19    5.60
  -4  -4   4  111.89    4.70
  -4  -4   3   97.79    4.90
  -4  -4   3  112.79    4.70
   4  -4  -3  114.19    3.30
  -4   4   2   69.39    4.30
   4  -4  -2   75.09    2.60
  -4  -4   2   76.29    3.90
  -4  -4   2   74.89    3.80
  -4   4   1  247.58    8.30
  -4  -4   1  249.48    8.10
  -4  -4   1  245.48    7.20
   4  -4  -1  248.28    6.20
   4   4   0  132.79    4.80
  -4   4   0  125.59    5.30
  -4  -4   0  134.89    5.70
   4  -4   0  131.69    4.50
   4   4   1   -0.90    0.70
  -4   4  -1   -0.90    0.60
   4  -4   1   -1.00    0.80
  -4  -4  -1   -0.60    1.20
  -4   4  -2   19.20    2.10
   4   4   2   23.90    2.60
   4  -4   2   18.10    2.60
  -4  -4  -2   19.10    2.80
  -4   4  -3  355.76    9.20
   4   4   3  348.27   10.00
   4  -4   3  355.36   11.30
  -4  -4  -3  360.96   11.60
   4   4   4   75.09    4.50
  -4   4  -4   72.99    3.20
  -4  -4  -4   71.49    5.20
   4  -4   4   68.19    5.20
  -4   4  -5   16.70    1.70
   4   4   5   15.90    3.00
   4  -4   5   20.60    3.90
  -4  -4  -5   19.80    3.40
   4   4   6   44.00    5.00
  -4  -4  -6   43.40    4.90
   4  -4   6   51.19    6.10
   4   4   7    8.00    3.00
  -4  -4  -7    8.20    2.90
   4  -4   7   11.70    3.90
   4   4   8   69.39    7.20
   4  -4   8   61.69    7.90
  -4  -4  -8   46.20    5.50
   4   4   9   97.79    9.40
  -4  -4  -9   83.59    9.10
   4  -4   9   91.89    9.90
   4   4  10   -1.10    3.20
   4  -4  10   -0.20    3.20
   4   4  11    4.70    4.00
   4  -4  11    9.30    4.90
  -4  -5  13    7.40    4.80
  -4  -5  12   18.90    5.70
  -4  -5  11   42.40    7.00
  -4  -5  10   19.20    5.00
   4  -5 -10   24.40    5.40
  -4   5   9    6.00    2.60
  -4  -5   9    5.10    3.50
   4  -5  -9   10.30    4.20
  -4   5   8   16.60    2.90
  -4  -5   8   17.20    4.50
   4  -5  -8   13.70    3.90
  -4   5   7   13.90    2.50
   4  -5  -7   12.90    3.40
  -4  -5   7   12.80    3.60
  -4  -5   7   14.20    2.20
  -4   5   6    5.40    1.50
  -4  -5   6    6.10    2.70
   4  -5  -6    1.40    2.40
  -4  -5   6    3.50    1.30
  -4   5   5   12.80    1.60
   4  -5  -5    9.60    2.80
  -4  -5   5    8.10    1.60
  -4  -5   5    9.80    2.60
  -4   5   4   40.10    2.00
  -4  -5   4   40.70    2.80
  -4  -5   4   46.10    4.00
   4  -5  -4   41.10    4.50
   4  -5  -3   52.99    4.40
   4  -5  -3   57.19    2.10
  -4  -5   3   60.49    3.50
  -4  -5   3   54.69    3.80
   4  -5  -2  647.74   17.50
  -4  -5   2  679.83   15.80
  -4  -5   2  667.03   16.20
   4  -5  -2  677.13   13.10
  -4   5   1  362.06   11.00
  -4  -5   1  367.46    9.80
  -4  -5   1  362.76   10.70
   4  -5  -1  374.16    8.40
  -4   5   0   28.70    3.00
   4   5   0   25.50    2.50
   4  -5   0   25.40    2.10
  -4  -5   0   24.30    3.00
   4   5   1    0.60    0.80
  -4   5  -1    0.10    0.90
   4  -5   1    0.90    1.20
  -4  -5  -1    2.40    1.40
  -4   5  -2  278.37    8.10
   4   5   2  275.27    8.10
  -4  -5  -2  271.57    9.80
   4  -5   2  267.47    9.10
   4   5   3  386.16   10.60
  -4   5  -3  381.66    9.90
  -4  -5  -3  380.96   12.60
   4  -5   3  389.76   12.30
  -4   5  -4    2.80    1.00
   4   5   4    2.50    1.40
   4  -5   4   -0.80    1.70
  -4  -5  -4    4.00    2.10
   4   5   5   30.30    3.80
  -4   5  -5   31.30    1.90
  -4  -5  -5   27.30    4.10
   4  -5   5   26.60    4.40
   4   5   6    9.10    2.80
   4  -5   6    7.70    3.30
  -4  -5  -6    9.20    2.90
   4   5   7  149.69    8.20
   4  -5   7  140.29    9.40
  -4  -5  -7  161.28    8.80
   4   5   8   30.10    5.00
   4  -5   8   26.70    5.60
  -4  -5  -8   40.70    5.40
   4   5   9   22.90    5.10
   4  -5   9   24.80    6.00
  -4  -5  -9   28.60    5.10
   4   5  10   11.20    4.30
   4  -5  10   14.80    5.50
   4   5  11   12.60    4.70
   4  -5  11   13.80    5.70
  -4  -6  12   39.80    7.50
  -4  -6  11    0.00    3.20
   4  -6 -11    4.30    4.20
   4  -6 -10   12.90    4.70
  -4  -6  10    3.50    3.50
  -4   6   9   20.00    3.40
   4  -6  -9   18.30    4.70
  -4  -6   9   17.30    4.70
  -4   6   8   26.50    3.40
   4  -6  -8   26.60    5.10
  -4  -6   8   14.60    4.40
  -4   6   7   -0.80    1.30
  -4  -6   7    0.20    2.50
   4  -6  -7   -1.60    2.40
  -4  -6   7    0.00    1.10
  -4   6   6   20.30    2.20
   4  -6  -6   14.10    3.60
  -4  -6   6   23.50    4.30
  -4  -6   6   18.60    2.20
  -4   6   5    0.70    0.80
  -4  -6   5    2.40    1.10
   4  -6  -5   -0.30    2.10
  -4  -6   5   -2.50    1.50
   4  -6  -4   20.40    3.70
   4  -6  -4   27.20    1.30
  -4  -6   4   22.50    3.30
  -4  -6   4   22.50    2.50
  -4  -6   3    1.40    1.10
  -4  -6   3   -0.20    1.20
   4  -6  -3   -2.90    1.40
   4  -6  -3   -0.10    0.40
  -4  -6   2    2.60    1.30
  -4  -6   2    2.80    1.40
   4  -6  -2    0.20    1.60
   4  -6  -2    1.20    0.60
  -4  -6   1  385.66   10.50
   4  -6  -1  394.56    9.10
  -4  -6   1  389.86   11.70
   4  -6  -1  417.56   12.40
  -4   6   0    8.50    1.90
   4   6   0    8.70    1.50
  -4  -6   0    5.00    1.90
   4  -6   0    8.50    1.60
   4   6   1    6.60    1.50
  -4   6  -1    4.50    1.40
  -4  -6  -1    4.90    2.00
   4  -6   1    4.00    1.60
   4   6   2  110.19    4.70
  -4   6  -2  107.99    4.70
  -4  -6  -2  104.49    6.10
   4  -6   2  113.89    5.80
   4   6   3   38.90    3.10
  -4   6  -3   43.60    2.80
   4  -6   3   44.50    4.60
  -4  -6  -3   34.30    4.40
  -4   6  -4   19.60    2.00
   4   6   4   18.30    2.70
  -4  -6  -4   14.90    3.30
   4  -6   4   17.10    3.60
   4   6   5    1.50    1.70
  -4  -6  -5    1.40    2.20
   4  -6   5    4.90    2.80
   4  -6   5    2.40    1.00
   4   6   6   91.79    6.00
  -4  -6  -6   97.79    7.00
   4  -6   6   94.29    7.40
   4   6   7   19.00    3.90
  -4  -6  -7   20.70    4.00
   4  -6   7   21.40    4.80
   4   6   8   68.69    7.00
   4  -6   8   60.49    7.90
  -4  -6  -8   52.39    6.30
   4   6   9   42.50    6.30
   4  -6   9   35.60    7.00
  -4  -6  -9   36.40    5.60
   4   6  10    9.90    4.20
   4  -6  10    7.50    4.50
   4   6  11   -0.10    3.70
   4  -6  11    3.60    4.30
  -4  -7  12   -1.10    3.30
   4  -7 -11   70.09    9.20
  -4  -7  11   84.29   10.00
  -4  -7  10    9.50    4.30
   4  -7 -10   10.20    4.20
  -4  -7   9   -2.10    2.60
   4  -7  -9   -5.80    2.20
  -4   7   8    2.00    1.60
  -4  -7   8    0.40    3.10
   4  -7  -8    2.00    3.00
  -4   7   7  135.09    5.20
   4  -7  -7  134.99    9.00
  -4  -7   7  124.89    8.30
  -4   7   6   40.90    2.40
   4  -7  -6   40.60    5.50
  -4  -7   6   42.10    2.90
  -4  -7   6   45.90    5.50
  -4   7   5   44.70    1.90
  -4  -7   5   43.20    3.00
   4  -7  -5   46.70    5.60
  -4  -7   5   51.29    5.40
  -4  -7   4   35.50    4.10
   4  -7  -4   35.80    4.80
  -4  -7   4   39.30    3.00
   4  -7  -3   94.69    6.00
  -4  -7   3   79.09    4.90
  -4  -7   3   85.59    4.50
   4  -7  -2  340.77   12.00
  -4  -7   2  343.17   10.70
  -4  -7   2  350.76   10.40
   4  -7  -2  347.17    7.40
   4  -7  -1   38.70    4.20
   4  -7  -1   37.50    2.30
  -4  -7   1   29.60    3.50
  -4  -7   1   31.50    3.10
   4   7   0 1377.66   28.50
   4  -7   0 1400.76   28.20
  -4  -7   0 1413.66   31.80
   4  -7   0 1405.56   31.20
   4   7   1    3.00    1.20
   4  -7   1    1.40    1.50
  -4  -7  -1    6.60    2.20
   4  -7   1    2.10    1.50
   4   7   2   29.00    2.60
   4  -7   2   27.40    3.00
   4  -7   2   35.70    3.90
  -4  -7  -2   23.50    3.50
   4   7   3    1.70    1.20
   4  -7   3   -0.50    1.70
   4  -7   3   -0.30    1.10
  -4  -7  -3   -0.90    1.90
   4   7   4    5.20    1.70
  -4  -7  -4    3.80    2.60
   4  -7   4    6.20    2.90
   4  -7   4    7.10    1.50
   4   7   5  120.69    6.30
  -4  -7  -5  131.99    8.20
   4  -7   5  139.89    8.50
   4  -7   5  141.69    4.20
   4   7   6   18.60    3.40
   4  -7   6   17.10    4.20
  -4  -7  -6   17.90    4.10
   4   7   7   23.60    4.10
  -4  -7  -7   16.10    4.10
   4  -7   7   10.80    3.90
   4   7   8    5.60    3.20
  -4  -7  -8    0.30    2.80
   4  -7   8    3.10    3.60
   4   7   9    2.80    3.30
   4  -7   9    3.00    3.90
  -4  -7  -9    2.10    2.90
   4   7  10    5.80    3.80
   4  -7  10    5.00    4.50
   4  -7  11    7.30    5.70
  -4  -8  12   14.30    5.50
   4  -8 -11    3.70    4.70
  -4  -8  11    5.40    4.70
   4  -8 -10   -0.20    3.50
  -4  -8  10    1.50    3.20
   4  -8  -9    5.50    4.40
  -4  -8   9    9.20    4.50
  -4  -8   8   14.10    4.20
   4  -8  -8   15.70    5.10
   4  -8  -7   68.99    7.70
  -4  -8   7   42.90    6.00
  -4   8   6  243.28    5.80
  -4  -8   6  247.98   11.20
  -4  -8   6  242.68    7.50
   4  -8  -6  235.58   11.80
  -4  -8   5   31.50    4.50
  -4  -8   5   30.80    2.70
   4  -8  -5   25.70    4.60
  -4  -8   4  147.19    6.10
  -4  -8   4  153.18    7.50
   4  -8  -4  149.49    8.50
  -4  -8   3   27.50    3.20
  -4  -8   3   31.30    3.70
   4  -8  -3   37.10    4.70
  -4  -8   2  271.57    9.60
  -4  -8   2  277.57    9.20
   4  -8  -2  277.47   10.90
   4  -8  -2  283.17    6.10
  -4  -8   1    0.80    1.10
  -4  -8   1   -1.40    1.20
   4  -8  -1   -2.50    1.30
   4  -8  -1    1.10    1.00
   4   8   0    7.30    1.70
   4  -8   0    7.80    2.50
   4  -8   0    4.90    1.60
  -4  -8   0    6.60    2.40
   4   8   1   49.60    3.20
   4  -8   1   47.30    3.80
   4  -8   1   49.80    3.80
  -4  -8  -1   47.80    5.10
   4   8   2  279.37    8.50
  -4  -8  -2  255.17   10.90
   4  -8   2  270.47    9.10
   4  -8   2  275.07    9.90
   4   8   3  153.28    6.00
   4  -8   3  164.58    8.00
   4  -8   3  150.48    6.10
  -4  -8  -3  148.79    8.20
   4   8   4    4.20    1.60
   4  -8   4    6.00    1.50
  -4  -8  -4    2.50    2.60
   4  -8   4    1.70    2.50
   4   8   5    2.30    1.70
  -4  -8  -5    3.00    2.90
   4  -8   5    0.90    2.40
   4   8   6   36.80    4.50
  -4  -8  -6   46.70    6.20
   4  -8   6   43.20    6.20
   4   8   7    0.00    2.20
  -4  -8  -7    7.40    3.40
   4  -8   7   -0.30    2.70
   4   8   8    3.00    2.60
   4  -8   8    1.20    3.60
  -4  -8  -8    7.10    3.40
   4   8   9   24.10    5.00
  -4  -8  -9    8.70    4.10
   4  -8   9   15.80    5.20
   4  -8  10    9.50    4.70
  -4  -8 -10   -4.40    2.80
   4  -8  11   -4.90    3.80
  -4  -9  12    7.30    4.60
   4  -9 -11   21.60    6.70
  -4  -9  11   33.10    7.00
   4  -9 -10   22.30    6.00
  -4  -9  10   21.20    5.50
  -4  -9   9    1.10    3.30
   4  -9  -9   10.80    4.90
   4  -9  -8   54.79    7.60
  -4  -9   8   51.39    6.90
   4  -9  -7   45.60    6.70
  -4  -9   7   29.10    5.10
   4  -9  -6   16.00    4.60
  -4  -9   6   24.50    2.70
  -4  -9   6   13.70    4.00
  -4  -9   5   -0.70    2.00
   4  -9  -5   -0.10    2.70
  -4  -9   5    2.60    1.40
  -4  -9   4    6.80    2.50
  -4  -9   4    2.10    1.40
   4  -9  -4    4.30    3.00
  -4  -9   3   24.10    3.20
   4  -9  -3   14.80    3.50
  -4  -9   3   15.00    2.80
  -4  -9   2    5.90    2.00
   4  -9  -2    2.40    2.00
  -4  -9   2    4.40    1.80
   4  -9  -2    4.40    0.70
  -4  -9   1    0.10    1.20
  -4  -9   1    2.60    1.80
   4  -9  -1    2.50    1.10
   4  -9  -1    3.40    2.30
   4   9   0    9.30    1.80
   4  -9   0    9.90    2.00
   4  -9   0    6.80    2.60
  -4  -9   0   10.30    2.70
   4   9   1    1.80    1.20
   4  -9   1    4.00    1.90
  -4  -9  -1    3.00    2.30
   4  -9   1    6.30    2.00
   4   9   2  211.58    7.40
   4  -9   2  229.08    9.00
  -4  -9  -2  244.58   10.60
   4  -9   2  223.58    8.50
   4   9   3   44.30    3.30
   4  -9   3   46.00    3.60
  -4  -9  -3   36.30    5.10
   4  -9   3   40.20    4.80
   4   9   4  107.79    5.30
  -4  -9  -4  106.29    8.00
   4  -9   4  118.19    5.00
   4  -9   4  119.69    7.70
   4   9   5    3.10    1.80
  -4  -9  -5    2.30    3.20
   4  -9   5    2.80    2.90
   4   9   6    0.00    2.00
  -4  -9  -6    2.20    3.10
   4  -9   6    1.10    3.00
   4   9   7    2.30    2.30
   4  -9   7   -1.40    2.70
  -4  -9  -7    5.90    3.90
   4   9   8   -0.30    2.50
  -4  -9  -8    1.50    3.10
   4  -9   8   -2.30    2.80
   4   9   9   13.70    5.00
  -4  -9  -9   24.20    5.60
   4  -9   9   24.60    6.20
  -4  -9 -10    6.10    4.10
   4  -9  10    3.50    4.40
   4  -9  11    2.40    4.60
   4 -10 -12   -0.60    5.40
  -4 -10  12    2.70    4.50
   4 -10 -11   20.00    6.60
  -4 -10  11   12.20    5.40
   4 -10 -10    3.00    4.40
  -4 -10  10    3.80    3.90
   4 -10  -9   -5.70    3.90
  -4 -10   9    1.70    3.20
   4 -10  -8  181.38   12.00
  -4 -10   8  164.58   10.70
  -4 -10   7   53.39    6.80
   4 -10  -7   47.80    7.20
   4 -10  -6   31.40    5.90
  -4 -10   6   31.50    3.10
  -4 -10   6   26.40    4.90
  -4 -10   5   27.50    4.70
   4 -10  -5   33.30    5.70
  -4 -10   5   23.70    3.00
  -4 -10   4    2.00    1.60
  -4 -10   4   -0.60    1.90
   4 -10  -4    3.70    2.40
  -4 -10   3   26.30    3.70
   4 -10  -3   21.50    4.40
  -4 -10   3   25.70    3.40
  -4 -10   2    2.10    1.70
  -4 -10   2   -0.10    1.70
   4 -10  -2    0.90    2.30
   4 -10  -2    2.30    0.50
  -4 -10   1    1.20    1.90
   4 -10  -1    0.90    1.10
  -4 -10   1    1.10    1.40
   4 -10  -1   -2.20    1.60
   4  10   0  178.68    6.80
  -4 -10   0  167.18    8.60
   4 -10   0  167.18    8.30
   4 -10   0  178.88    6.60
   4  10   1   36.20    3.10
  -4 -10  -1   32.20    4.60
   4 -10   1   45.10    4.80
   4 -10   1   27.70    3.50
   4  10   2   -0.60    1.00
  -4 -10  -2   -0.40    2.50
   4 -10   2    1.60    1.70
   4 -10   2   -2.60    1.70
   4  10   3   28.60    3.10
   4 -10   3   20.80    3.90
   4 -10   3   25.80    3.30
  -4 -10  -3   16.60    4.20
   4  10   4   10.80    2.20
   4 -10   4    6.60    3.30
  -4 -10  -4   11.50    4.00
   4 -10   4   12.80    2.40
   4  10   5   46.10    4.00
   4 -10   5   50.19    6.40
  -4 -10  -5   43.00    6.50
   4  10   6  147.99    7.40
  -4 -10  -6  162.78   10.60
   4 -10   6  136.79    9.60
   4  10   7   20.80    3.80
  -4 -10  -7   17.70    5.10
   4 -10   7   25.40    5.40
   4  10   8   23.90    4.70
   4 -10   8   23.30    6.00
  -4 -10  -8   30.80    6.00
   4 -10   9    2.40    3.80
  -4 -10  -9   -0.70    3.10
  -4 -10 -10    4.80    4.10
   4 -10  10    4.20    4.50
  -4 -11  11    2.40    4.00
   4 -11 -11    3.30    5.50
   4 -11 -10   14.90    6.30
  -4 -11  10   19.60    5.60
   4 -11  -9    5.10    4.60
  -4 -11   9    3.80    4.10
  -4 -11   8    9.80    4.20
   4 -11  -8    7.70    4.60
  -4 -11   7  101.59    8.50
   4 -11  -7   86.29    9.60
  -4 -11   6  151.38    8.70
   4 -11  -6  151.48   10.60
  -4 -11   6  141.99    9.10
  -4 -11   5   -1.90    2.10
  -4 -11   5   -0.50    1.40
   4 -11  -5   -1.80    2.90
  -4 -11   4   15.00    3.30
   4 -11  -4   12.70    4.20
  -4 -11   4   15.70    3.00
  -4 -11   3   42.50    4.60
   4 -11  -3   49.30    6.30
  -4 -11   3   57.29    4.60
   4 -11  -2    4.30    3.00
  -4 -11   2    6.30    2.20
  -4 -11   2    3.50    2.00
   4 -11  -1   27.50    2.40
  -4 -11   1   34.80    3.70
   4 -11  -1   35.90    5.00
  -4 -11   1   31.40    4.40
   4  11   0   10.10    2.20
  -4 -11   0    6.60    2.80
   4 -11   0    9.50    2.20
   4 -11   0    9.30    2.90
   4  11   1    4.30    1.60
  -4 -11  -1    6.50    3.00
   4 -11   1    5.80    2.20
   4 -11   1    6.60    2.70
   4  11   2   46.30    3.40
  -4 -11  -2   34.20    5.40
   4 -11   2   45.50    4.80
   4 -11   2   45.70    4.80
   4  11   3    6.10    1.70
  -4 -11  -3    2.10    3.00
   4 -11   3    9.80    2.60
   4 -11   3    5.50    2.80
   4  11   4   27.90    3.30
  -4 -11  -4   33.10    5.80
   4 -11   4   29.90    3.40
   4 -11   4   23.90    4.70
   4  11   5   16.10    2.90
   4 -11   5   16.10    4.70
  -4 -11  -5   19.50    5.10
   4  11   6   17.40    3.20
  -4 -11  -6   16.00    4.90
   4 -11   6   16.40    4.50
   4  11   7   23.70    3.90
   4 -11   7   14.30    4.60
  -4 -11  -7   13.50    4.80
   4 -11   8    3.10    4.10
  -4 -11  -8    7.10    4.50
   4 -11   9    4.30    4.80
  -4 -11  -9    1.40    3.90
  -4 -11 -10   12.90    4.90
   4 -11  10    8.20    5.10
  -4 -12  11    5.30    4.70
   4 -12 -11    4.50    6.10
  -4 -12  10    2.00    3.80
   4 -12 -10    0.70    4.60
  -4 -12   9    2.50    3.60
   4 -12  -9    2.60    4.00
   4 -12  -8   29.90    6.60
  -4 -12   8   34.50    6.40
   4 -12  -7    9.50    4.90
  -4 -12   7   12.20    4.20
  -4 -12   6  124.59    8.80
   4 -12  -6  117.19    9.90
  -4 -12   5   -0.50    1.50
  -4 -12   5   -0.20    2.00
   4 -12  -5    1.10    3.60
  -4 -12   4   92.99    5.80
  -4 -12   4   80.09    6.40
   4 -12  -4   78.09    8.50
   4 -12  -3    0.80    2.90
  -4 -12   3    1.90    2.00
  -4 -12   3   -0.50    1.50
  -4 -12   2   51.39    4.20
  -4 -12   2   43.40    5.20
   4 -12  -2   41.90    6.00
   4 -12  -1   15.90    4.00
  -4 -12   1   17.30    2.90
  -4 -12   1   18.10    3.80
   4 -12  -1   17.90    2.20
   4  12   0    1.00    1.20
  -4 -12   0   -4.30    1.80
   4 -12   0   -2.80    2.20
   4 -12   0    0.10    1.30
   4  12   1    0.30    1.30
   4 -12   1   -0.30    2.40
  -4 -12  -1   -0.60    2.60
   4 -12   1    2.70    1.90
   4  12   2    4.30    1.60
   4 -12   2    1.20    2.10
   4 -12   2    0.10    2.30
  -4 -12  -2    0.80    3.10
   4  12   3    3.20    1.70
  -4 -12  -3    8.90    4.10
   4 -12   3    5.80    2.50
   4 -12   3    2.50    2.70
   4  12   4    1.50    1.60
  -4 -12  -4   10.50    4.30
   4 -12   4    3.40    2.10
   4 -12   4    2.80    3.00
   4  12   5   50.29    4.20
  -4 -12  -5   52.69    7.60
   4 -12   5   52.09    6.70
   4  12   6   -1.90    1.90
   4 -12   6   -0.40    2.90
  -4 -12  -6    0.30    3.80
  -4 -12  -7   22.40    5.90
   4 -12   7   16.60    5.10
   4 -12   8    2.10    4.20
  -4 -12  -8    1.80    3.60
   4 -12   9    2.90    4.30
  -4 -12  -9   -1.40    3.60
  -4 -12 -10    0.50    4.50
   4 -12  10   -2.00    3.80
  -4 -13  11   10.40    4.80
   4 -13 -11   -4.60    5.80
   4 -13 -10   -4.90    4.60
  -4 -13  10   -2.20    2.90
   4 -13  -9   -6.10    3.80
  -4 -13   9   -2.00    3.40
   4 -13  -8    4.40    4.50
  -4 -13   8    6.80    4.20
   4 -13  -7    1.90    4.00
  -4 -13   7    3.20    3.40
  -4 -13   6   37.70    5.70
   4 -13  -6   29.80    6.50
  -4 -13   5    6.10    3.20
  -4 -13   5    8.90    2.50
   4 -13  -5   10.70    4.90
   4 -13  -4    7.70    4.10
  -4 -13   4    4.40    2.20
  -4 -13   4    9.10    3.10
  -4 -13   3    4.70    2.50
   4 -13  -3    1.80    3.40
  -4 -13   3    4.10    2.50
   4 -13  -2   68.59    7.70
  -4 -13   2   93.39    6.60
  -4 -13   2   84.89    5.60
  -4 -13   1   70.89    5.00
   4 -13  -1   68.29    7.40
  -4 -13   1   82.59    6.70
   4 -13  -1   77.89    3.70
   4  13   0   46.60    3.90
   4 -13   0   39.40    5.50
   4 -13   0   51.29    3.80
  -4 -13   0   39.50    5.70
   4  13   1    4.70    1.90
   4 -13   1    8.70    3.50
  -4 -13  -1    4.50    3.20
   4 -13   1   12.60    2.80
   4  13   2   18.50    2.70
   4 -13   2   21.50    4.00
  -4 -13  -2   21.20    4.90
   4 -13   2   19.50    4.10
   4  13   3  152.48    6.50
   4 -13   3  160.28    8.10
  -4 -13  -3  167.58   11.00
   4 -13   3  152.28    8.90
   4  13   4    9.30    2.20
  -4 -13  -4    9.40    4.40
   4 -13   4   14.60    4.20
   4  13   5   13.90    2.90
  -4 -13  -5    5.00    4.40
   4 -13   5   10.30    4.30
  -4 -13  -6   49.90    7.90
   4 -13   6   48.50    7.50
  -4 -13  -7  185.08   12.80
   4 -13   7  145.19   11.40
   4 -13   8    8.10    4.50
  -4 -13  -8   13.60    5.50
  -4 -13  -9   -1.30    3.30
   4 -13   9    1.30    3.90
   4 -14 -10   -1.00    5.00
  -4 -14  10   -4.00    3.90
   4 -14  -9    1.90    4.90
  -4 -14   9   -0.90    3.90
  -4 -14   8   -2.00    3.20
   4 -14  -8   -5.30    3.80
   4 -14  -7    0.30    4.10
  -4 -14   7   -2.70    2.30
  -4 -14   6    9.20    3.40
   4 -14  -6   10.50    4.90
  -4 -14   5   -0.80    2.40
  -4 -14   5   -1.20    1.50
   4 -14  -5   -1.10    3.80
   4 -14  -4   19.50    5.60
  -4 -14   4   28.40    4.40
  -4 -14   4   25.80    4.00
  -4 -14   3   -0.60    1.60
   4 -14  -3    0.10    3.40
  -4 -14   3   -1.40    1.70
  -4 -14   2   14.90    2.90
   4 -14  -2   15.30    4.70
  -4 -14   2   19.20    4.00
  -4 -14   1   12.10    3.80
  -4 -14   1   21.00    3.30
   4 -14  -1   14.00    4.50
   4  14   0  214.38    8.40
   4 -14   0  224.28   11.40
  -4 -14   0  212.48   11.40
   4 -14   0  221.08    8.10
   4  14   1   -0.10    1.50
   4 -14   1    3.10    2.10
   4 -14   1    0.50    3.00
  -4 -14  -1   -0.80    2.80
   4  14   2  124.99    5.90
   4 -14   2  129.09    7.90
  -4 -14  -2  108.49    8.80
   4 -14   2  127.89    7.50
   4  14   3   47.20    3.80
   4 -14   3   47.60    6.00
  -4 -14  -3   45.50    7.10
   4 -14   3   36.20    4.90
   4  14   4   71.39    4.50
   4 -14   4   54.59    6.90
  -4 -14  -4   68.49    8.70
   4 -14   5   51.89    6.90
  -4 -14  -5   65.39    9.10
   4 -14   6    2.20    3.60
  -4 -14  -6    3.60    4.30
  -4 -14  -7   23.60    6.20
   4 -14   7   16.00    5.40
  -4 -14  -8   -2.70    3.70
   4 -14   8    2.70    3.60
   4 -14   9    6.90    4.80
  -4 -14  -9   -1.40    3.90
  -4 -15  10   -1.40    3.90
   4 -15 -10   -5.20    4.80
   4 -15  -9    2.40    5.30
  -4 -15   9   -2.00    3.40
   4 -15  -8   20.30    6.70
  -4 -15   8    6.00    3.90
  -4 -15   7  103.19    8.60
   4 -15  -7   90.49   11.10
  -4 -15   6   12.50    4.10
   4 -15  -6    6.90    5.10
  -4 -15   5   19.50    3.60
   4 -15  -5   22.90    6.30
  -4 -15   5   16.10    4.20
   4 -15  -4    8.50    4.80
  -4 -15   4    8.40    2.80
  -4 -15   4   10.10    3.00
  -4 -15   3   15.60    3.70
  -4 -15   3   12.90    3.10
   4 -15  -3   22.00    5.70
  -4 -15   2   13.80    3.10
   4 -15  -2    6.10    3.90
  -4 -15   2    9.70    3.30
  -4 -15   1   16.60    4.30
   4 -15  -1   11.80    4.50
   4  15   0   65.69    4.70
   4 -15   0   63.89    4.30
  -4 -15   0   57.19    7.30
   4 -15   0   60.99    7.50
   4  15   1  359.76   11.60
   4 -15   1  370.96   12.40
  -4 -15  -1  358.86   16.20
   4 -15   1  369.16   15.10
   4  15   2   68.99    4.60
   4 -15   2   78.39    6.80
   4 -15   2   76.79    6.00
  -4 -15  -2   69.19    8.40
   4  15   3   94.99    5.20
   4 -15   3   94.49    7.20
  -4 -15  -3   89.69   10.00
   4 -15   3   87.09    6.70
  -4 -15  -4   93.69   10.30
   4 -15   4   80.19    8.10
   4 -15   5   10.80    4.20
  -4 -15  -5    9.30    4.80
   4 -15   6    0.90    3.10
  -4 -15  -6    3.20    4.40
   4 -15   7   28.00    6.60
  -4 -15  -7   23.30    6.40
  -4 -15  -8   -2.50    3.90
   4 -15   8    4.30    4.00
   4 -15   9    2.10    4.30
  -4 -15  -9    3.10    4.70
  -4 -16   9   -0.30    3.30
   4 -16  -9    4.00    6.00
   4 -16  -8   -3.10    4.70
  -4 -16   8    3.70    3.30
  -4 -16   7   26.00    5.60
   4 -16  -7   21.00    6.20
   4 -16  -6    1.90    4.70
  -4 -16   6    9.40    3.70
  -4 -16   5   11.60    3.80
   4 -16  -5    6.80    5.20
  -4 -16   4   10.60    3.30
   4 -16  -4   -0.60    3.90
  -4 -16   4   10.40    3.10
  -4 -16   3    2.70    2.60
   4 -16  -3    0.60    3.70
  -4 -16   3   -1.60    1.70
  -4 -16   2   54.09    6.70
   4 -16  -2   52.89    7.60
  -4 -16   2   50.29    5.40
   4  16  -1  146.59    7.40
   4 -16  -1  130.09    9.90
  -4 -16   1  142.99    9.70
   4  16   0    2.70    1.80
   4 -16   0    7.20    3.70
  -4 -16   0    5.20    3.70
   4  16   1   50.79    4.30
   4 -16   1   49.99    6.60
   4 -16   1   52.99    5.20
  -4 -16  -1   49.70    7.30
   4  16   2   34.40    3.80
   4 -16   2   49.80    5.80
   4 -16   2   43.30    6.10
  -4 -16  -2   45.20    7.10
  -4 -16  -3   14.00    5.10
   4 -16   3   10.30    3.80
   4 -16   3   14.90    3.90
  -4 -16  -4    1.00    3.90
   4 -16   4    1.70    2.90
   4 -16   5    6.60    4.00
  -4 -16  -5    0.20    4.30
   4 -16   6   27.10    5.70
  -4 -16  -6   12.90    5.40
   4 -16   7   20.20    5.80
  -4 -16  -7   11.00    5.90
  -4 -16  -8   12.00    5.90
   4 -16   8   14.10    5.70
  -4 -17   9   -5.30    2.90
   4 -17  -9   -4.80    5.30
  -4 -17   8    3.30    3.70
   4 -17  -8    1.80    5.60
  -4 -17   7   -3.40    2.50
   4 -17  -7    3.40    5.00
  -4 -17   6   -1.20    2.80
   4 -17  -6    8.30    5.20
   4 -17  -5   -0.50    4.20
  -4 -17   5    0.60    2.30
  -4 -17   4    7.30    3.10
   4 -17  -4    0.00    3.90
  -4 -17   4   10.40    3.60
  -4 -17   3    1.40    2.70
   4 -17  -3   -2.80    3.60
  -4 -17   3    2.10    2.20
  -4 -17   2   -1.40    1.90
   4 -17  -2   -5.80    2.80
  -4 -17   2    6.90    3.50
   4  17  -1   44.80    4.90
  -4 -17   1   29.50    5.60
   4 -17  -1   45.50    7.20
   4  17   0   21.30    3.50
   4 -17   0   21.00    5.10
  -4 -17   0   15.00    4.60
   4  17   1   11.50    2.70
   4 -17   1   16.30    4.80
  -4 -17  -1   13.10    4.90
  -4 -17  -2    2.60    3.70
   4 -17   2   11.70    3.30
   4 -17   2    1.80    2.90
   4 -17   3    6.50    3.30
  -4 -17  -3   11.80    4.60
   4 -17   4    1.20    2.80
  -4 -17  -4    5.90    4.60
   4 -17   5    7.90    3.70
  -4 -17  -5   10.50    5.70
   4 -17   6   52.39    7.90
  -4 -17  -6   37.40    8.00
   4 -17   7    7.80    4.60
  -4 -17  -7   18.60    6.50
  -4 -17  -8    2.50    5.00
   4 -17   8    3.30    4.40
   4 -18  -8    5.50    6.40
  -4 -18   8    4.10    4.10
  -4 -18   7    5.20    3.80
   4 -18  -7   -0.40    5.20
   4 -18  -6   -4.00    4.30
  -4 -18   6    6.20    3.50
   4 -18  -5   30.90    7.50
  -4 -18   5   43.40    6.00
   4 -18  -4    4.50    5.10
  -4 -18   4    1.80    2.50
  -4 -18   4    6.80    3.20
  -4 -18   3   -1.70    2.70
   4 -18  -3   -1.90    3.70
  -4 -18   3   -1.40    2.20
  -4 -18   2   -1.10    1.90
  -4 -18   2    0.50    2.70
   4 -18  -2    0.50    3.70
   4  18  -1    5.60    2.40
   4 -18  -1    3.20    3.90
  -4 -18   1    0.90    3.00
   4  18   0    0.30    1.80
   4 -18   0    4.10    3.80
  -4 -18   0    2.70    3.30
  -4 -18  -1   -4.10    2.70
   4 -18   1    0.60    3.60
   4 -18   2    2.60    3.70
  -4 -18  -2   10.40    5.00
   4 -18   3    0.30    2.70
  -4 -18  -3   -3.10    3.70
  -4 -18  -4   -0.20    4.30
   4 -18   4   10.60    4.00
   4 -18   5    1.00    3.40
  -4 -18  -5    1.40    4.10
  -4 -18  -6   35.20    8.50
   4 -18   6   20.70    5.40
   4 -18   7    4.30    3.80
  -4 -18  -7    8.10    5.60
  -4 -19   8    7.20    4.60
   4 -19  -8    1.80    6.10
   4 -19  -7   17.60    7.30
  -4 -19   7   18.20    5.10
  -4 -19   6   -1.60    2.40
   4 -19  -6   -0.90    5.10
  -4 -19   5    9.20    3.80
   4 -19  -5   -0.20    4.80
  -4 -19   4   26.80    4.80
   4 -19  -4   25.40    7.00
  -4 -19   3    6.90    2.80
  -4 -19   3    4.10    3.40
   4 -19  -3    6.40    5.20
  -4 -19   2   -1.20    1.90
   4 -19  -2    1.90    4.40
  -4 -19   2   -1.30    2.70
   4  19  -1    1.90    2.20
  -4 -19   1   -7.30    2.00
   4 -19  -1   -7.50    2.80
  -4 -19   0    0.40    3.20
   4 -19   0    4.50    4.10
   4 -19   1    1.30    3.90
  -4 -19  -1    9.50    5.10
  -4 -19  -2   -3.80    3.40
   4 -19   2   -3.90    3.30
  -4 -19  -3   -0.20    4.20
   4 -19   4    6.50    3.70
  -4 -19  -4   14.00    6.40
  -4 -19  -5   -3.80    3.80
   4 -19   5   -1.90    3.10
   4 -19   6    5.20    4.00
  -4 -19  -6   -3.60    4.10
  -4 -20   7    0.60    3.40
   4 -20  -7   10.70    7.20
   4 -20  -6   -1.90    5.60
  -4 -20   6   -0.20    2.80
   4 -20  -5    2.50    5.80
  -4 -20   5   -1.50    2.20
   4 -20  -4   57.49    9.90
  -4 -20   4   56.29    7.10
  -4 -20   3   -5.10    1.70
  -4 -20   3   -2.80    2.80
   4 -20  -3   -5.60    3.80
   4 -20  -2   -1.70    4.10
  -4 -20   2   -0.30    3.30
   4 -20  -1   -1.90    4.40
  -4 -20   1   -1.10    3.10
   4 -20   0   14.30    5.30
  -4 -20   0   19.80    5.70
  -4 -20  -1    1.00    3.90
   4 -20   1    2.70    4.40
  -4 -20  -2   -6.00    3.60
  -4 -20  -3   -3.90    3.80
  -4 -20  -4   -1.50    4.60
   4 -20   5    4.20    3.60
  -4 -20  -5    2.40    5.20
   4 -20   6    9.20    4.20
  -4 -21   6   11.50    4.40
   4 -21  -6    9.50    7.00
   4 -21  -5    7.20    6.40
  -4 -21   5    9.60    3.80
  -4 -21   4    2.20    2.70
   4 -21  -4   -0.70    5.10
  -4 -21   3    3.30    2.90
  -4 -21   3    6.00    3.80
   4 -21  -3   -4.30    4.60
   4 -21  -2   -0.70    5.10
  -4 -21   2    5.90    4.40
   4 -21  -1   21.00    7.00
  -4 -21   1   30.50    6.70
   4 -21   0    5.50    4.80
  -4 -21   0    7.00    4.60
  -4 -21  -1   -1.90    3.90
   4 -21   1   -2.70    4.10
  -4 -21  -2    7.10    5.00
  -4 -21  -3    6.50    5.90
  -4 -21  -4    5.40    5.70
  -4 -21  -5    5.60    5.60
   4 -22  -5    5.20    7.30
  -4 -22   5    1.30    3.00
   4 -22  -4   -4.40    5.20
  -4 -22   4    4.20    4.20
   4 -22  -3   12.90    6.50
  -4 -22   2    7.60    4.10
   4 -22  -2   -3.20    4.80
  -4 -22   1    5.20    4.30
   4 -22  -1   -0.80    4.50
  -4 -22   0    3.30    4.40
   4 -22   0   -5.80    3.30
   4 -22   1   -8.70    3.50
  -4 -22  -1   -5.50    3.20
  -4 -22  -2    4.50    5.80
  -4 -22  -3   14.80    6.70
   4 -23  -3   15.30    7.10
  -4 -23   2   14.00    5.30
   4 -23  -2   18.00    7.00
  -4 -23   1   -2.20    4.00
   4 -23  -1   -1.30    4.70
   4 -23   0   -2.70    4.00
  -4 -23   0    2.20    5.00
  -4 -23  -1    7.00    5.30
  -5   0  13   -4.60    3.00
  -5   0  12   16.70    5.00
  -5   0  11    1.20    2.90
  -5   0  10   18.70    4.40
   5   0  -9    0.10    2.30
  -5   0   9   -1.20    2.10
  -5   0   8   24.30    3.90
   5   0  -8   24.80    3.80
   5   0  -7   -2.30    1.40
  -5   0   7    0.50    1.60
  -5   0   6   67.49    4.80
  -5   0   6   67.79    4.70
  -5   0   5    1.40    1.40
  -5   0   5   -0.70    1.10
  -5   0   4  457.05   12.70
  -5   0   4  424.86   11.40
  -5   0   3    0.00    0.90
  -5   0   3   -0.40    0.80
   5   0  -2  971.50   20.30
  -5   0   2  995.90   22.30
   5   0  -1    1.50    0.80
  -5   0   1   -0.70    0.70
   5   0   0  381.76    9.70
  -5   0   0  364.96   10.50
   5   0   1    0.40    0.90
  -5   0  -1    1.00    1.00
  -5   0  -2    6.90    1.60
   5   0   2    2.90    1.40
  -5   0  -3   -0.40    0.80
   5   0   3    0.20    1.60
  -5   0  -4    8.90    1.90
   5   0   4   12.30    2.70
  -5   0  -5    0.20    1.30
   5   0   5   -0.80    1.70
  -5   0  -6  377.26   11.40
   5   0   6  346.37   13.30
  -5   0  -7    2.00    1.50
   5   0   7   -0.50    2.30
   5   0   8   -5.30    2.00
   5   0   9   -1.70    2.80
   5   0  10   27.90    6.20
   5   0  11    5.20    4.60
  -5   1  13   -1.60    3.30
  -5  -1  13    1.30    3.80
  -5   1  12    3.90    3.50
  -5  -1  12    2.10    3.40
  -5   1  11    1.60    2.80
  -5  -1  11    3.60    3.00
  -5   1  10   49.90    6.20
  -5  -1  10   52.29    6.60
  -5   1   9   13.20    3.30
   5   1  -9    7.70    2.60
   5  -1  -9   11.50    3.40
  -5  -1   9    6.20    2.90
   5   1  -8   11.40    2.90
  -5   1   8    8.80    2.80
   5  -1  -8    8.50    2.70
  -5  -1   8   11.90    3.20
   5   1  -7   69.49    4.80
  -5   1   7   62.19    4.90
  -5  -1   7   57.29    5.70
   5  -1  -7   58.39    5.00
  -5   1   6   10.10    2.40
   5  -1  -6   10.60    2.60
  -5  -1   6   11.20    2.70
  -5  -1   6   12.80    2.40
  -5   1   5   10.40    2.20
  -5   1   5    9.80    2.00
  -5  -1   5   11.60    2.30
  -5  -1   5    9.40    2.20
  -5   1   4    2.90    1.50
  -5   1   4    2.80    1.20
  -5  -1   4    3.30    1.40
  -5  -1   4    6.70    1.70
  -5   1   3   38.80    2.50
  -5   1   3   35.10    3.10
  -5  -1   3   36.70    2.70
  -5  -1   3   37.50    3.00
  -5   1   2   37.40    2.90
  -5  -1   2   37.90    2.90
   5  -1  -2   35.70    2.30
  -5   1   1   43.70    3.10
   5   1  -1   43.00    2.60
  -5  -1   1   39.50    2.90
   5  -1  -1   44.80    2.50
  -5   1   0  123.79    5.20
   5   1   0  129.49    4.90
  -5  -1   0  127.99    5.40
   5  -1   0  130.59    4.70
  -5   1  -1    8.80    1.70
   5   1   1   10.10    1.80
  -5  -1  -1   12.30    2.10
   5  -1   1   11.40    1.90
   5   1   2    7.00    1.70
  -5   1  -2    3.70    1.30
  -5  -1  -2    3.40    1.30
   5  -1   2    5.00    1.60
  -5   1  -3   47.00    3.30
   5   1   3   43.60    3.60
  -5  -1  -3   50.29    3.60
   5  -1   3   43.50    3.80
   5   1   4  130.29    6.60
  -5   1  -4  136.99    5.70
  -5  -1  -4  130.29    6.10
   5  -1   4  129.29    6.80
   5   1   5   29.50    4.10
  -5   1  -5   26.10    3.00
  -5  -1  -5   23.60    3.10
   5  -1   5   30.00    4.40
  -5   1  -6    1.00    1.40
   5   1   6    2.20    2.30
  -5  -1  -6    3.90    1.90
   5  -1   6    4.80    2.80
   5   1   7   10.40    3.40
  -5   1  -7   19.30    2.70
  -5  -1  -7   18.70    3.10
   5  -1   7   25.20    4.80
   5   1   8   17.40    4.30
   5  -1   8   26.10    5.50
   5   1   9   17.40    4.80
   5  -1   9   24.30    5.80
   5   1  10    0.30    3.00
   5  -1  10    3.00    3.80
   5   1  11    1.20    4.10
   5  -1  11   -1.80    3.40
  -5  -2  13   27.20    6.20
  -5   2  12    0.20    3.00
  -5  -2  12   -0.20    2.80
  -5   2  11    1.80    3.00
  -5  -2  11    3.60    3.70
  -5   2  10   60.39    6.50
  -5  -2  10   45.20    6.30
   5  -2 -10   58.99    6.70
  -5   2   9    0.20    2.20
  -5  -2   9    2.70    2.50
   5  -2  -9    1.60    2.60
  -5   2   8    7.50    2.50
   5   2  -8   10.10    2.50
   5  -2  -8    4.70    2.90
  -5  -2   8    7.20    3.10
  -5   2   7   28.50    3.70
  -5  -2   7   29.50    4.10
   5  -2  -7   32.10    4.40
  -5   2   6    6.80    2.00
  -5  -2   6    5.20    2.20
   5  -2  -6    6.80    2.40
  -5  -2   6    7.00    1.90
  -5   2   5  613.64   17.10
  -5   2   5  584.24   14.40
  -5  -2   5  586.94   15.90
  -5  -2   5  620.74   15.70
  -5   2   4  961.60   20.30
  -5   2   4  989.10   23.50
  -5  -2   4  944.11   22.10
  -5  -2   4  990.70   22.10
  -5   2   3   56.19    3.90
  -5   2   3   52.89    2.70
  -5  -2   3   56.39    3.40
  -5  -2   3   54.99    3.50
  -5   2   2  445.86   12.50
  -5  -2   2  442.76   11.20
  -5  -2   2  449.46   12.10
   5  -2  -2  435.66   10.30
  -5   2   1    1.80    1.20
   5   2  -1    1.40    1.00
   5  -2  -1    3.30    1.10
  -5  -2   1    2.50    1.20
  -5   2   0   60.89    3.60
   5   2   0   63.49    3.40
  -5  -2   0   63.89    3.90
   5  -2   0   57.79    3.10
   5   2   1   17.60    2.30
  -5   2  -1   17.50    2.30
   5  -2   1   17.30    2.30
  -5  -2  -1   22.40    2.80
  -5   2  -2   47.20    3.10
   5   2   2   55.49    3.50
   5  -2   2   42.40    3.30
  -5  -2  -2   46.70    3.60
   5   2   3   45.60    3.60
  -5   2  -3   51.19    3.30
   5  -2   3   45.20    3.80
  -5  -2  -3   48.90    3.80
   5   2   4  530.75   15.00
  -5   2  -4  548.25   13.70
  -5  -2  -4  524.15   14.90
   5  -2   4  522.95   15.60
   5   2   5    0.40    1.80
  -5   2  -5   -0.50    1.00
   5  -2   5    3.20    2.30
  -5  -2  -5   -1.20    1.20
  -5   2  -6  420.36   11.50
   5   2   6  421.36   14.50
   5  -2   6  411.06   15.20
  -5  -2  -6  440.86   13.60
   5   2   7   64.99    6.90
   5  -2   7   61.19    7.00
  -5  -2  -7   63.69    4.90
   5   2   8   -0.70    2.70
   5  -2   8    6.70    3.70
  -5  -2  -8    0.70    2.00
   5   2   9   21.10    5.30
   5  -2   9   27.00    5.80
   5   2  10    1.90    3.30
   5  -2  10   -0.60    3.30
   5   2  11   -3.60    3.40
   5  -2  11   -3.50    3.70
  -5  -3  13    0.00    3.20
  -5  -3  12   16.60    5.10
  -5   3  11   20.50    4.30
  -5  -3  11   21.00    5.20
  -5   3  10   20.90    4.10
  -5  -3  10   34.00    5.70
   5  -3 -10   30.80    5.50
  -5   3   9  120.99    7.20
  -5  -3   9  114.19    8.20
   5  -3  -9   98.89    7.60
   5   3  -8   66.49    4.50
  -5   3   8   71.69    5.20
   5  -3  -8   66.59    6.00
  -5  -3   8   61.69    6.40
  -5   3   7    2.00    1.80
  -5  -3   7    2.80    2.10
   5  -3  -7   -1.80    1.70
  -5  -3   7    2.60    1.60
  -5   3   6   -1.30    1.10
   5  -3  -6    0.90    1.90
  -5  -3   6   -0.20    1.60
  -5  -3   6   -0.80    1.10
  -5   3   5   11.60    1.80
  -5  -3   5    5.70    1.60
   5  -3  -5    9.30    2.50
  -5  -3   5    8.20    2.20
  -5   3   4   29.20    2.20
  -5   3   4   32.10    3.80
  -5  -3   4   27.60    3.30
  -5  -3   4   30.20    3.10
  -5   3   3  273.17    9.50
  -5  -3   3  259.77    8.40
   5  -3  -3  258.87    6.80
  -5  -3   3  268.57    8.40
  -5   3   2  948.11   22.30
  -5  -3   2  959.40   21.70
  -5  -3   2  942.91   20.40
   5  -3  -2  917.41   18.90
  -5   3   1  199.48    7.30
   5   3  -1  185.48    6.30
  -5  -3   1  193.68    7.10
   5  -3  -1  188.78    5.60
  -5   3   0  203.08    7.20
   5   3   0  202.58    6.70
  -5  -3   0  201.28    7.40
   5  -3   0  201.78    6.20
   5   3   1   23.60    2.60
  -5   3  -1   26.10    2.70
  -5  -3  -1   22.60    2.90
   5  -3   1   23.90    2.60
   5   3   2    1.80    1.20
  -5   3  -2    2.40    1.10
   5  -3   2    4.80    1.70
  -5  -3  -2    1.80    1.40
  -5   3  -3   37.70    2.70
   5   3   3   33.00    3.60
  -5  -3  -3   27.30    3.40
   5  -3   3   29.10    3.60
  -5   3  -4    1.90    1.00
   5   3   4   -1.50    1.40
   5  -3   4    1.10    1.80
  -5  -3  -4    0.00    1.70
  -5   3  -5    0.70    0.90
   5   3   5    5.30    2.30
   5  -3   5   -2.30    1.80
  -5  -3  -5    0.80    1.80
   5   3   6    0.90    2.00
  -5   3  -6    1.80    1.10
  -5  -3  -6    4.50    2.30
   5  -3   6    1.30    2.80
   5   3   7    5.30    3.00
  -5  -3  -7    2.20    2.10
   5  -3   7    4.10    3.30
   5   3   8   10.80    3.60
   5  -3   8   16.70    4.70
  -5  -3  -8   17.80    3.60
   5   3   9   10.10    4.20
   5  -3   9   -1.30    3.30
   5   3  10    5.30    4.10
   5  -3  10   -1.20    3.90
   5   3  11    8.20    4.30
   5  -3  11    7.00    4.90
  -5  -4  13    2.70    3.60
  -5  -4  12   19.40    5.40
  -5   4  11   -0.80    3.00
  -5  -4  11   -2.50    2.60
  -5   4  10   65.49    6.30
   5  -4 -10   45.10    6.40
  -5  -4  10   60.09    7.60
  -5   4   9   21.80    3.70
   5  -4  -9   13.00    4.00
  -5  -4   9   10.00    3.90
   5   4  -8   22.70    3.00
  -5   4   8   22.80    3.40
   5  -4  -8   27.90    4.70
  -5  -4   8   20.60    4.20
  -5   4   7   11.10    2.30
   5  -4  -7    3.60    2.40
  -5  -4   7   11.60    2.20
  -5  -4   7   13.60    3.30
  -5   4   6    2.10    1.30
   5  -4  -6   -1.60    1.60
  -5  -4   6    3.70    2.40
  -5  -4   6    3.10    1.40
  -5   4   5   29.70    2.30
   5  -4  -5   24.80    3.80
  -5  -4   5   28.50    3.80
  -5  -4   5   29.70    3.10
  -5   4   4    0.50    0.80
  -5   4   4    0.30    1.40
  -5  -4   4   -0.90    0.90
  -5  -4   4   -1.20    1.20
  -5   4   3   87.39    5.20
  -5  -4   3   76.69    4.40
  -5  -4   3   86.99    4.40
   5  -4  -3   75.19    3.00
  -5   4   2  234.88    8.60
  -5  -4   2  232.08    8.10
   5  -4  -2  232.48    6.10
  -5  -4   2  231.68    7.50
  -5   4   1  117.89    5.60
   5   4  -1  112.19    4.80
   5  -4  -1  120.69    4.20
  -5  -4   1  119.89    5.60
   5   4   0  535.65   13.20
  -5   4   0  541.95   14.20
  -5  -4   0  513.05   14.40
   5  -4   0  537.95   12.50
  -5   4  -1  119.89    5.20
   5   4   1  120.39    5.10
  -5  -4  -1  122.69    6.00
   5  -4   1  117.59    5.10
  -5   4  -2   23.60    2.60
   5   4   2   20.40    2.70
   5  -4   2   23.40    3.10
  -5  -4  -2   23.90    3.20
  -5   4  -3    1.30    1.00
   5   4   3    0.80    1.20
  -5  -4  -3    4.40    1.90
   5  -4   3    0.40    1.50
   5   4   4    5.10    1.80
  -5   4  -4    9.40    1.70
   5  -4   4    8.80    2.80
  -5  -4  -4    6.60    2.30
  -5   4  -5   62.79    3.30
   5   4   5   71.19    5.10
   5  -4   5   63.59    6.40
  -5  -4  -5   69.59    5.40
   5   4   6    2.90    2.20
   5  -4   6    0.10    2.30
  -5  -4  -6    2.50    2.10
   5   4   7   -0.20    2.00
   5  -4   7   -2.70    2.40
  -5  -4  -7   -2.50    1.40
   5   4   8   17.10    4.30
  -5  -4  -8   13.50    3.40
   5  -4   8   10.80    4.60
   5   4   9   -0.20    3.10
   5  -4   9   -1.30    2.80
   5   4  10    2.60    3.80
   5  -4  10    0.90    3.70
   5   4  11    1.00    3.70
   5  -4  11    3.80    4.90
  -5  -5  13    0.60    4.30
  -5  -5  12    6.50    4.10
  -5  -5  11   17.70    5.30
   5  -5 -11   16.30    5.00
  -5   5  10    1.70    2.50
  -5  -5  10    2.50    3.20
   5  -5 -10    3.90    3.60
  -5   5   9   15.90    3.30
  -5  -5   9   17.80    4.50
   5  -5  -9    7.80    3.60
  -5   5   8   14.40    2.80
  -5  -5   8    7.50    3.20
   5  -5  -8   13.60    4.00
  -5   5   7    6.60    1.90
  -5  -5   7    2.90    2.50
  -5  -5   7    6.10    1.80
   5  -5  -7    5.80    3.00
  -5   5   6    8.80    1.70
   5  -5  -6    6.10    2.80
  -5  -5   6    9.30    2.00
  -5  -5   6    8.00    2.60
  -5   5   5   23.80    2.00
  -5  -5   5   26.30    3.00
   5  -5  -5   25.90    4.10
  -5  -5   5   21.50    3.50
  -5  -5   4  124.89    5.50
   5  -5  -4  113.29    6.80
   5  -5  -4  123.09    3.90
  -5  -5   4  120.79    6.20
  -5   5   3    5.20    2.10
  -5  -5   3    5.80    1.60
  -5  -5   3    4.70    1.70
   5  -5  -3    4.90    0.90
  -5   5   2  520.55   15.10
   5  -5  -2  531.95   11.30
  -5  -5   2  531.65   13.50
  -5  -5   2  523.65   14.30
  -5   5   1 1276.07   29.20
   5   5  -1 1339.17   27.10
  -5  -5   1 1287.17   29.00
   5  -5  -1 1283.47   25.30
   5   5   0    0.10    1.10
  -5   5   0    2.40    1.40
   5  -5   0    4.40    1.40
  -5  -5   0    5.90    1.80
  -5   5  -1  311.47    9.70
   5   5   1  326.77    9.40
   5  -5   1  310.57    9.50
  -5  -5  -1  341.27   11.20
  -5   5  -2  123.49    5.40
   5   5   2  136.39    5.60
  -5  -5  -2  131.69    6.80
   5  -5   2  138.09    6.40
   5   5   3   48.40    3.50
  -5   5  -3   49.10    3.20
   5  -5   3   57.49    5.30
  -5  -5  -3   56.69    4.70
   5   5   4   81.99    5.00
  -5   5  -4   76.69    3.80
  -5  -5  -4   83.09    5.80
   5  -5   4   82.49    6.00
   5   5   5    8.50    2.50
  -5   5  -5   13.10    1.80
  -5  -5  -5   10.90    3.20
   5  -5   5    9.00    3.30
   5   5   6   -3.70    1.70
   5  -5   6    1.10    2.50
  -5  -5  -6   -1.50    2.00
   5   5   7   25.00    4.40
  -5  -5  -7   22.70    4.30
   5  -5   7   25.80    5.10
   5   5   8    5.10    3.40
  -5  -5  -8   -2.90    2.00
   5  -5   8    7.10    4.20
   5   5   9   75.89    8.30
   5  -5   9   60.29    8.30
  -5  -5  -9   55.49    6.60
   5   5  10    1.60    3.10
   5  -5  10    3.30    3.90
   5   5  11   24.00    5.80
   5  -5  11   23.50    6.80
  -5  -6  12   17.10    5.80
  -5  -6  11   53.79    7.70
   5  -6 -11   42.80    7.20
   5  -6 -10   49.99    7.20
  -5  -6  10   51.09    7.20
  -5   6   9    6.10    3.90
  -5  -6   9    3.80    3.30
   5  -6  -9   -0.20    3.50
  -5   6   8    5.40    1.90
   5  -6  -8    5.10    3.60
  -5  -6   8   11.20    4.00
  -5   6   7   23.50    2.70
   5  -6  -7   24.30    4.90
  -5  -6   7   26.30    3.00
  -5  -6   7   17.60    4.00
  -5   6   6   54.09    2.90
   5  -6  -6   59.09    6.40
  -5  -6   6   60.79    6.10
  -5  -6   6   53.19    3.60
  -5   6   5   -1.20    0.70
  -5  -6   5    0.70    1.10
   5  -6  -5    1.10    2.20
  -5  -6   5    2.10    1.90
  -5  -6   4   78.59    5.20
   5  -6  -4   88.29    6.20
  -5  -6   4   87.49    4.70
   5  -6  -4   88.99    2.90
   5  -6  -3    8.00    2.40
   5  -6  -3   10.20    1.10
  -5  -6   3    5.40    1.80
  -5  -6   3    7.90    2.00
  -5   6   2   16.10    2.80
  -5  -6   2   15.70    2.40
  -5  -6   2   15.90    2.70
   5  -6  -2   13.10    1.40
   5   6  -1   -1.20    0.90
  -5   6   1   -0.20    1.10
   5  -6  -1    1.10    1.00
  -5  -6   1   -0.30    1.20
   5   6   0  139.79    5.60
  -5   6   0  123.99    6.10
  -5  -6   0  146.19    6.90
   5  -6   0  134.89    5.20
  -5   6  -1   18.60    2.70
   5   6   1   14.90    2.20
  -5  -6  -1   14.20    2.80
   5  -6   1   15.60    2.50
   5   6   2  215.78    7.50
  -5   6  -2  222.68    7.70
  -5  -6  -2  226.68    9.50
   5  -6   2  230.88    8.60
   5   6   3  225.68    7.90
  -5   6  -3  224.08    7.40
  -5  -6  -3  216.38    9.60
   5  -6   3  197.28    8.80
   5   6   4    0.80    1.40
  -5   6  -4   -1.90    0.80
   5  -6   4   -2.80    1.60
  -5  -6  -4   -1.10    1.60
  -5   6  -5  114.09    4.40
   5   6   5  100.29    6.00
  -5  -6  -5  112.49    7.40
   5  -6   5  129.29    8.00
   5   6   6    0.80    2.20
   5  -6   6    3.80    2.80
  -5  -6  -6    2.40    2.50
   5   6   7    3.10    2.50
   5  -6   7    3.30    3.20
  -5  -6  -7    5.40    2.80
   5   6   8    6.50    3.30
   5  -6   8    8.40    4.10
  -5  -6  -8    3.80    3.10
   5   6   9   -0.30    2.50
   5  -6   9   -4.60    2.50
  -5  -6  -9    0.10    2.40
   5   6  10   -5.50    2.80
   5  -6  10   -2.70    3.70
   5   6  11   -3.20    3.60
   5  -6  11    7.60    5.30
  -5  -7  12    7.80    4.30
  -5  -7  11    2.00    3.90
   5  -7 -11    3.00    4.20
   5  -7 -10    2.10    3.60
  -5  -7  10    2.10    3.60
  -5  -7   9   47.40    7.00
   5  -7  -9   38.30    6.30
  -5  -7   8   -5.00    2.00
   5  -7  -8    3.10    3.30
  -5   7   7   47.30    2.90
  -5  -7   7   40.20    3.20
  -5  -7   7   41.70    5.70
   5  -7  -7   48.20    6.50
  -5   7   6    0.80    0.90
  -5  -7   6   -0.30    2.30
   5  -7  -6    1.90    2.70
  -5  -7   6    1.50    1.30
   5  -7  -5   29.90    1.60
  -5  -7   5   33.20    3.00
   5  -7  -5   32.00    4.90
  -5  -7   5   27.20    4.10
   5  -7  -4   26.20    1.30
  -5  -7   4   24.30    3.60
   5  -7  -4   33.10    4.70
  -5  -7   4   25.50    3.10
  -5  -7   3    1.20    1.20
   5  -7  -3    2.50    0.60
  -5  -7   3   -0.10    1.20
   5  -7  -3    2.00    2.10
  -5  -7   2  228.98    8.10
   5  -7  -2  216.18    9.40
  -5  -7   2  244.28    9.00
   5  -7  -2  232.58    5.90
   5   7  -1  157.58    6.30
   5  -7  -1  151.38    5.10
  -5  -7   1  144.59    7.00
   5  -7  -1  145.09    7.30
  -5   7   0   27.30    3.40
   5   7   0   19.20    2.50
   5  -7   0   24.10    2.70
  -5  -7   0   30.10    3.80
  -5   7  -1    3.40    1.60
   5   7   1    3.50    1.40
  -5  -7  -1    3.30    2.00
   5  -7   1    0.20    1.30
   5   7   2   64.99    4.00
  -5   7  -2   66.19    4.10
  -5  -7  -2   59.99    5.20
   5  -7   2   71.99    4.90
   5   7   3   27.00    3.20
  -5   7  -3   26.00    2.90
  -5  -7  -3   25.90    4.10
   5  -7   3   29.30    4.00
   5   7   4   39.80    4.00
   5  -7   4   43.90    5.30
  -5  -7  -4   33.20    4.80
   5   7   5    4.10    2.20
  -5  -7  -5    5.70    2.80
   5  -7   5    4.60    3.20
   5  -7   5    4.70    1.30
   5   7   6   69.69    5.50
   5  -7   6   64.89    7.50
  -5  -7  -6   51.19    6.30
   5   7   7   42.00    5.30
  -5  -7  -7   38.80    5.80
   5  -7   7   33.70    6.20
   5   7   8   -1.70    2.50
  -5  -7  -8    2.20    3.00
   5  -7   8    0.10    3.20
   5   7   9   14.30    4.30
  -5  -7  -9   13.30    4.40
   5  -7   9   10.60    4.80
   5   7  10   16.40    5.00
   5  -7  10   14.60    6.00
   5  -7  11   -0.40    4.00
  -5  -8  12   33.50    7.10
  -5  -8  11   12.50    5.10
   5  -8 -11   17.60    5.90
  -5  -8  10    2.50    3.60
   5  -8 -10    3.80    4.50
  -5  -8   9   46.50    7.20
   5  -8  -9   46.50    7.20
   5  -8  -8   72.99    8.20
  -5  -8   8   66.09    7.70
   5  -8  -7    2.10    3.20
  -5  -8   7    6.40    3.40
  -5  -8   7   14.10    2.70
  -5  -8   6   23.00    4.50
   5  -8  -6   19.20    4.50
  -5  -8   6   30.90    3.30
  -5  -8   5   28.80    3.30
   5  -8  -5   25.00    4.40
  -5  -8   5   30.30    4.30
  -5  -8   4   50.39    3.90
   5  -8  -4   54.39    6.00
  -5  -8   4   61.09    4.90
   5  -8  -3   38.50    5.00
  -5  -8   3   43.90    3.80
  -5  -8   3   43.30    3.70
  -5  -8   2   20.00    3.00
  -5  -8   2   17.30    2.70
   5  -8  -2   18.90    3.60
   5  -8  -2   19.00    1.70
   5   8  -1    0.90    1.30
   5  -8  -1    2.40    2.10
  -5  -8   1    2.60    1.80
   5  -8  -1    3.50    1.30
   5   8   0  268.87    8.90
   5  -8   0  294.17   10.60
   5  -8   0  273.27    8.60
  -5  -8   0  285.97   11.00
   5   8   1   20.40    2.60
   5  -8   1   20.40    2.90
  -5  -8  -1   24.10    3.90
   5  -8   1   18.80    3.10
   5   8   2   10.90    2.10
   5  -8   2   12.50    2.60
  -5  -8  -2   14.50    3.40
   5  -8   2   16.30    3.10
   5   8   3  345.87   10.60
  -5  -8  -3  358.76   13.80
   5  -8   3  360.66   12.70
   5  -8   3  349.87   10.70
   5   8   4   52.39    3.90
   5  -8   4   58.39    3.70
  -5  -8  -4   53.19    6.30
   5  -8   4   46.10    5.80
   5   8   5   68.59    5.00
  -5  -8  -5   64.29    7.00
   5  -8   5   57.39    6.60
   5   8   6   49.99    5.30
  -5  -8  -6   55.79    6.70
   5  -8   6   56.09    6.90
   5   8   7   -2.40    2.00
  -5  -8  -7   -3.00    2.00
   5  -8   7    2.80    3.40
   5   8   8   19.90    4.40
   5  -8   8   14.20    5.10
  -5  -8  -8   14.20    4.50
   5   8   9    3.00    3.00
  -5  -8  -9   -0.50    3.10
   5  -8   9   -1.90    3.30
   5   8  10    4.20    3.80
   5  -8  10    5.00    4.50
   5  -8  11    7.20    5.20
   5  -9 -12   -0.50    6.20
  -5  -9  12   -1.00    3.70
   5  -9 -11   13.60    6.00
  -5  -9  11    9.00    4.60
   5  -9 -10   10.10    5.00
  -5  -9  10   15.10    5.00
  -5  -9   9  159.88   10.80
   5  -9  -9  153.68   11.20
   5  -9  -8   -2.90    3.00
  -5  -9   8    4.00    3.50
   5  -9  -7   50.69    7.10
  -5  -9   7   45.80    6.30
   5  -9  -6    6.70    3.70
  -5  -9   6    9.10    3.20
  -5  -9   6   11.00    2.30
  -5  -9   5   90.49    5.10
   5  -9  -5   98.79    7.80
  -5  -9   5   88.29    6.70
   5  -9  -4  186.68   10.20
  -5  -9   4  207.28    9.10
  -5  -9   4  185.58    7.80
   5  -9  -3   18.90    3.90
  -5  -9   3   18.10    3.10
  -5  -9   3   22.30    3.20
  -5  -9   2   -0.20    1.20
   5  -9  -2    2.40    2.30
  -5  -9   2   -1.10    1.40
   5  -9  -2    0.80    0.90
   5  -9  -1   31.30    4.30
  -5  -9   1   34.30    4.30
   5  -9  -1   32.50    2.60
   5   9   0   11.70    2.20
   5  -9   0   12.00    2.20
   5  -9   0    7.20    2.50
  -5  -9   0   10.60    2.80
   5   9   1  115.79    5.40
  -5  -9  -1  104.79    7.00
   5  -9   1   87.89    5.30
   5  -9   1   97.29    6.00
   5   9   2  224.28    8.00
  -5  -9  -2  226.68   10.60
   5  -9   2  222.78    8.80
   5  -9   2  216.98    9.20
   5   9   3   21.90    2.80
   5  -9   3   19.60    3.00
  -5  -9  -3   16.30    3.70
   5  -9   3   33.80    4.70
   5   9   4   28.00    3.60
  -5  -9  -4   27.40    5.00
   5  -9   4   28.50    4.60
   5  -9   4   32.50    3.30
   5   9   5    3.30    2.00
   5  -9   5    5.50    3.20
  -5  -9  -5   -0.90    2.50
   5   9   6   62.59    5.10
   5  -9   6   64.79    7.70
  -5  -9  -6   50.39    6.80
   5   9   7   21.70    4.10
   5  -9   7   19.20    5.00
  -5  -9  -7   17.30    4.70
   5   9   8   -1.30    2.60
   5  -9   8    3.40    3.60
  -5  -9  -8    0.10    2.80
   5   9   9    0.10    2.80
   5  -9   9   -1.30    3.20
  -5  -9  -9    0.80    2.90
   5  -9  10    5.00    4.50
  -5  -9 -10    5.50    4.30
   5 -10 -12    5.60    5.20
  -5 -10  12   10.00    5.10
  -5 -10  11    1.10    3.60
   5 -10 -11    0.70    5.00
  -5 -10  10    2.40    3.40
   5 -10 -10    0.70    4.70
  -5 -10   9    2.80    3.50
   5 -10  -9    2.40    4.60
   5 -10  -8   38.80    6.90
  -5 -10   8   26.00    5.50
   5 -10  -7  100.39    9.00
  -5 -10   7  103.69    8.00
  -5 -10   6  182.38    9.90
   5 -10  -6  173.28   11.00
  -5 -10   6  167.28    7.00
  -5 -10   5  565.94   18.00
   5 -10  -5  579.74   20.30
  -5 -10   5  571.44   15.70
   5 -10  -4    1.10    2.80
  -5 -10   4    7.80    2.70
  -5 -10   4   10.20    2.40
  -5 -10   3   76.49    5.30
  -5 -10   3   70.29    5.10
   5 -10  -3   69.89    6.40
  -5 -10   2    2.10    1.70
   5 -10  -2    2.20    0.90
  -5 -10   2    2.30    1.90
   5 -10  -2   -1.40    2.00
   5 -10  -1    4.00    1.40
  -5 -10   1   -0.80    1.70
   5 -10  -1    0.10    1.90
   5  10   0  119.59    5.80
   5 -10   0  117.79    5.60
   5 -10   0  122.69    7.20
  -5 -10   0  121.89    7.50
   5  10   1   25.30    3.30
   5 -10   1   19.50    3.30
  -5 -10  -1   23.30    4.30
   5 -10   1   25.60    3.60
   5  10   2  291.07    9.60
   5 -10   2  296.57   10.90
   5 -10   2  288.07   10.60
  -5 -10  -2  286.97   12.60
   5  10   3    1.00    1.50
   5 -10   3    1.30    2.10
  -5 -10  -3    3.20    3.00
   5 -10   3   -0.30    1.60
   5  10   4   94.39    5.30
  -5 -10  -4  102.29    8.20
   5 -10   4  105.79    5.40
   5 -10   4   99.79    7.30
   5  10   5   49.10    4.90
  -5 -10  -5   33.30    5.80
   5 -10   5   31.20    5.40
   5  10   6   63.79    5.90
   5 -10   6   38.00    6.30
  -5 -10  -6   41.20    6.50
   5  10   7    3.00    2.50
  -5 -10  -7    4.60    3.70
   5 -10   7    1.40    3.30
   5  10   8   67.99    7.10
   5 -10   8   58.89    8.50
  -5 -10  -8   63.39    8.30
  -5 -10  -9   -2.40    2.40
   5 -10   9    8.00    4.70
  -5 -10 -10    3.80    4.20
   5 -10  10    3.90    4.70
  -5 -11  11    0.70    3.80
   5 -11 -11    4.00    4.70
  -5 -11  10    7.80    4.30
   5 -11 -10    2.50    4.70
   5 -11  -9    7.90    4.80
  -5 -11   9    7.50    3.80
  -5 -11   8    3.90    3.60
   5 -11  -8    4.70    4.40
  -5 -11   7    7.00    3.40
   5 -11  -7   13.50    5.10
  -5 -11   6   11.60    3.70
  -5 -11   6   14.90    2.70
   5 -11  -6    2.80    3.90
   5 -11  -5  147.49   10.20
  -5 -11   5  150.58    7.20
  -5 -11   5  162.08    9.00
  -5 -11   4   32.60    4.50
  -5 -11   4   26.20    3.70
   5 -11  -4   33.10    5.80
  -5 -11   3   68.59    5.20
   5 -11  -3   65.09    7.10
  -5 -11   3   68.09    5.30
   5 -11  -2    0.70    0.80
  -5 -11   2   -0.90    1.40
   5 -11  -2   -3.50    2.20
  -5 -11   2    2.10    1.90
   5  11  -1    3.90    1.60
   5 -11  -1    3.30    1.40
  -5 -11   1    3.80    2.50
   5 -11  -1    4.20    2.60
   5  11   0   12.10    2.30
   5 -11   0    9.50    3.10
   5 -11   0    7.10    2.10
  -5 -11   0    9.30    3.30
   5  11   1   23.20    3.10
   5 -11   1   22.10    3.80
   5 -11   1   24.20    3.50
  -5 -11  -1   24.70    4.70
   5  11   2    0.30    1.40
  -5 -11  -2    0.20    2.50
   5 -11   2    0.20    2.20
   5 -11   2   -0.40    1.80
   5  11   3   63.39    4.30
   5 -11   3   56.09    4.60
   5 -11   3   47.70    5.60
  -5 -11  -3   47.80    6.40
   5  11   4   13.10    2.60
   5 -11   4   11.20    3.60
  -5 -11  -4   17.50    4.40
   5 -11   4   12.30    2.70
   5  11   5    9.00    2.60
  -5 -11  -5    7.30    3.90
   5 -11   5    5.50    3.70
   5  11   6    1.80    2.10
   5 -11   6    2.60    3.60
  -5 -11  -6    3.10    3.40
   5  11   7   22.40    4.30
  -5 -11  -7   21.90    5.50
   5 -11   7   20.80    5.30
  -5 -11  -8   -3.40    2.70
   5 -11   8   -1.40    3.20
   5 -11   9   21.40    6.20
  -5 -11  -9   32.50    6.60
  -5 -11 -10    8.90    4.70
   5 -11  10   17.90    6.30
  -5 -12  11    7.20    4.90
   5 -12 -11   -4.00    4.70
   5 -12 -10   29.20    7.80
  -5 -12  10   21.90    6.00
  -5 -12   9    0.60    3.40
   5 -12  -9   -2.20    4.20
  -5 -12   8   11.80    4.40
   5 -12  -8    3.30    4.10
  -5 -12   7   89.69    7.80
   5 -12  -7   97.29   10.30
  -5 -12   6    5.10    2.50
  -5 -12   6    7.30    3.30
   5 -12  -6    0.00    3.50
  -5 -12   5  155.08    7.50
   5 -12  -5  152.78   10.70
  -5 -12   5  176.78    9.60
  -5 -12   4   22.00    3.70
  -5 -12   4   32.40    4.70
   5 -12  -4   35.80    5.80
   5 -12  -3   21.70    4.90
  -5 -12   3   13.30    3.00
  -5 -12   3   21.50    3.70
  -5 -12   2   34.10    5.00
  -5 -12   2   33.40    4.10
   5 -12  -2   25.60    5.00
   5  12  -1   25.10    3.60
   5 -12  -1   27.40    2.80
  -5 -12   1   21.10    4.10
   5 -12  -1   23.00    4.60
   5  12   0   29.60    3.60
   5 -12   0   32.20    3.70
  -5 -12   0   36.40    5.40
   5 -12   0   29.40    4.80
   5  12   1    6.10    2.00
  -5 -12  -1    7.50    3.60
   5 -12   1    5.40    2.30
   5 -12   1    4.90    2.70
   5  12   2    0.40    1.50
   5 -12   2    1.90    2.20
  -5 -12  -2   -3.10    2.40
   5 -12   2    0.70    2.10
   5  12   3   89.19    5.20
   5 -12   3  104.79    7.40
   5 -12   3   91.19    6.00
  -5 -12  -3   89.79    8.10
   5  12   4   20.90    3.10
   5 -12   4   17.20    4.10
  -5 -12  -4   10.40    4.30
   5  12   5   -0.70    1.70
  -5 -12  -5    1.70    3.30
   5 -12   5   -1.60    2.70
   5  12   6   18.50    3.50
  -5 -12  -6   21.00    5.70
   5 -12   6   13.60    4.70
  -5 -12  -7    9.10    4.30
   5 -12   7   14.10    5.20
  -5 -12  -8   18.30    6.10
   5 -12   8    9.20    4.50
   5 -12   9    9.00    5.00
  -5 -12  -9    5.50    4.10
   5 -12  10    1.00    4.30
   5 -13 -11   14.50    7.40
  -5 -13  11    3.70    4.10
  -5 -13  10   -5.30    2.70
   5 -13 -10   -2.70    4.70
  -5 -13   9    3.00    3.70
   5 -13  -9    8.90    5.50
  -5 -13   8    6.20    3.60
   5 -13  -8    5.70    4.70
   5 -13  -7    4.40    4.70
  -5 -13   7    3.10    3.00
  -5 -13   6   74.09    7.90
   5 -13  -6   67.99    8.90
  -5 -13   5    2.80    2.00
   5 -13  -5    2.30    4.00
  -5 -13   5    3.20    2.60
   5 -13  -4   14.90    5.00
  -5 -13   4   19.40    3.50
  -5 -13   4   24.30    4.10
  -5 -13   3  153.58    8.40
   5 -13  -3  156.98   10.50
  -5 -13   3  161.58    8.30
   5 -13  -2   -1.90    2.60
  -5 -13   2    2.10    2.60
  -5 -13   2    3.10    2.10
   5  13  -1  460.65   13.90
  -5 -13   1  456.65   16.60
   5 -13  -1  445.86   16.90
   5 -13  -1  432.36   11.30
   5  13   0    8.30    2.40
   5 -13   0    9.00    3.40
  -5 -13   0    5.80    2.80
   5 -13   0    3.30    1.90
   5  13   1   18.60    3.10
  -5 -13  -1   23.90    4.90
   5 -13   1   19.20    3.50
   5 -13   1   16.00    3.90
   5  13   2  135.29    6.50
   5 -13   2  139.59    7.90
   5 -13   2  142.89    8.20
  -5 -13  -2  128.99    9.60
   5  13   3  206.58    8.10
   5 -13   3  212.88   10.40
   5 -13   3  208.88    9.40
  -5 -13  -3  189.88   11.80
   5  13   4    1.30    1.60
   5 -13   4    0.90    2.70
  -5 -13  -4   10.20    4.30
   5  13   5    3.10    2.20
   5 -13   5    2.70    3.50
  -5 -13  -5    0.40    3.50
  -5 -13  -6    9.00    4.60
   5 -13   6    9.10    4.00
   5 -13   7   75.79    9.60
  -5 -13  -7   87.69   10.30
  -5 -13  -8    7.60    4.90
   5 -13   8    8.70    5.10
   5 -13   9    6.90    5.20
  -5 -13  -9    7.10    4.80
   5 -14 -10    2.50    5.40
  -5 -14  10    4.70    4.00
  -5 -14   9   -4.10    2.50
   5 -14  -9   -2.30    4.70
  -5 -14   8   -0.50    2.80
   5 -14  -8    9.60    5.40
   5 -14  -7    2.90    4.60
  -5 -14   7    1.10    3.20
  -5 -14   6    1.80    2.90
   5 -14  -6    1.40    4.10
  -5 -14   5    4.20    2.20
  -5 -14   5    3.30    2.50
   5 -14  -5    5.40    4.10
  -5 -14   4   35.30    4.80
   5 -14  -4   38.40    6.90
  -5 -14   4   28.80    4.50
  -5 -14   3   11.10    3.20
  -5 -14   3    6.80    2.60
   5 -14  -3    4.80    3.90
   5 -14  -2   50.09    7.10
  -5 -14   2   59.39    5.10
  -5 -14   2   60.49    6.60
   5  14  -1  107.89    6.40
   5 -14  -1  101.39    8.40
  -5 -14   1  109.39    8.00
   5  14   0  134.19    6.90
   5 -14   0  153.58    9.80
  -5 -14   0  151.48    9.80
   5 -14   0  149.09    6.70
   5  14   1   45.00    4.50
  -5 -14  -1   39.90    6.40
   5 -14   1   50.19    5.10
   5 -14   1   45.40    6.00
   5  14   2    7.40    2.20
   5 -14   2    8.40    3.10
  -5 -14  -2    5.50    3.80
   5 -14   2    4.60    3.10
   5  14   3   -0.60    1.30
   5 -14   3    1.00    2.40
   5 -14   3   -0.20    2.60
  -5 -14  -3   -1.60    3.20
   5  14   4    1.90    1.70
  -5 -14  -4    0.60    3.20
   5 -14   4   -0.30    2.50
  -5 -14  -5    8.30    4.70
   5 -14   5   13.10    4.40
   5 -14   6   19.80    5.20
  -5 -14  -6   17.80    5.50
  -5 -14  -7    5.10    4.60
   5 -14   7    6.00    4.20
   5 -14   8   22.70    6.30
  -5 -14  -8   13.50    5.70
   5 -14   9   -2.60    3.60
  -5 -14  -9    5.60    5.30
  -5 -15  10   -1.80    3.10
   5 -15 -10    2.30    5.70
   5 -15  -9   -4.20    4.20
  -5 -15   9   -0.80    3.60
   5 -15  -8    0.10    4.40
  -5 -15   8   -4.60    3.00
  -5 -15   7   14.00    4.50
   5 -15  -7   13.10    5.80
   5 -15  -6   -2.90    3.50
  -5 -15   6    5.90    3.10
   5 -15  -5    3.10    3.60
  -5 -15   5    5.70    2.60
  -5 -15   5    2.10    2.90
   5 -15  -4   -0.40    3.50
  -5 -15   4   -1.70    2.10
  -5 -15   4    0.40    1.80
  -5 -15   3    5.80    2.70
   5 -15  -3    2.70    4.00
  -5 -15   3    1.10    2.40
  -5 -15   2    6.30    2.60
   5 -15  -2    8.40    4.20
  -5 -15   2    4.60    3.10
   5  15  -1    0.90    1.80
  -5 -15   1    4.70    3.10
   5 -15  -1   -1.20    3.10
   5  15   0   42.50    4.70
   5 -15   0   44.30    6.40
  -5 -15   0   28.30    5.60
   5 -15   0   41.70    5.20
   5  15   1   11.00    2.70
  -5 -15  -1   17.90    4.90
   5 -15   1   15.20    3.30
   5 -15   1   20.60    4.50
   5  15   2    5.20    2.20
   5 -15   2    1.50    2.50
   5 -15   2    9.50    3.60
  -5 -15  -2   -0.10    3.50
   5  15   3   57.39    4.40
   5 -15   3   66.59    7.00
   5 -15   3   69.29    6.30
  -5 -15  -3   71.29    9.00
  -5 -15  -4   38.70    7.30
   5 -15   4   39.90    6.10
   5 -15   5   30.00    5.80
  -5 -15  -5   23.20    6.30
   5 -15   6   32.20    6.50
  -5 -15  -6   37.50    7.50
  -5 -15  -7   55.59    9.30
   5 -15   7   63.89    9.00
   5 -15   8   39.70    7.70
  -5 -15  -8   40.60    8.40
  -5 -16   9    6.20    4.10
   5 -16  -9    1.70    6.30
   5 -16  -8    6.20    5.50
  -5 -16   8   12.40    4.90
   5 -16  -7   13.40    6.00
  -5 -16   7    4.50    3.40
   5 -16  -6   10.10    5.50
  -5 -16   6   22.60    4.70
   5 -16  -5   12.50    5.50
  -5 -16   5    9.70    3.60
  -5 -16   5    7.70    3.30
  -5 -16   4   20.30    4.20
   5 -16  -4   22.60    6.10
  -5 -16   4   30.10    4.80
  -5 -16   3   -1.70    2.00
   5 -16  -3    4.50    4.30
  -5 -16   3    1.00    2.20
  -5 -16   2   35.80    5.60
  -5 -16   2   45.20    5.10
   5 -16  -2   47.60    7.30
   5  16  -1   -0.50    1.60
  -5 -16   1   -4.40    2.10
   5 -16  -1    0.80    3.40
   5  16   0    2.20    1.80
   5 -16   0    1.40    3.30
  -5 -16   0    3.70    3.80
   5  16   1   83.29    5.50
   5 -16   1   88.19    6.10
   5 -16   1   88.39    7.70
  -5 -16  -1   84.99    9.30
   5  16   2   -1.00    1.50
   5 -16   2   -0.30    2.30
   5 -16   2    2.80    3.10
  -5 -16  -2   -2.80    2.80
   5 -16   3    7.00    5.30
   5 -16   3    1.30    2.60
  -5 -16  -3    0.90    3.70
  -5 -16  -4    1.20    4.00
   5 -16   4    0.20    2.60
   5 -16   5    8.30    4.00
  -5 -16  -5    4.30    4.50
  -5 -16  -6   -4.50    3.50
   5 -16   6    1.90    3.30
   5 -16   7   41.70    7.60
  -5 -16  -7   32.10    7.60
   5 -16   8    3.60    4.00
  -5 -16  -8   -2.00    4.10
   5 -17  -9    5.90    6.60
  -5 -17   9    9.80    4.70
  -5 -17   8    1.20    3.50
   5 -17  -8    1.50    5.10
   5 -17  -7   -2.90    4.40
  -5 -17   7   -2.60    2.30
  -5 -17   6    5.00    3.10
   5 -17  -6    5.80    5.10
  -5 -17   5   28.80    5.20
   5 -17  -5   20.50    6.70
   5 -17  -4   11.30    5.40
  -5 -17   4    1.30    2.40
  -5 -17   4    4.40    2.80
   5 -17  -3   25.10    6.60
  -5 -17   3   31.30    5.30
  -5 -17   3   27.80    4.50
   5 -17  -2    6.50    4.40
  -5 -17   2    7.40    3.70
  -5 -17   2    8.70    3.00
   5  17  -1    1.30    2.00
  -5 -17   1   -5.20    2.00
   5 -17  -1    9.60    4.60
   5  17   0    1.10    2.00
   5 -17   0   -6.30    3.00
  -5 -17   0    3.00    3.50
   5  17   1   32.50    4.20
   5 -17   1   32.80    6.10
  -5 -17  -1   24.50    6.10
   5 -17   2   14.00    3.70
  -5 -17  -2    6.40    4.40
   5 -17   2   16.70    4.40
   5 -17   3   20.10    4.50
  -5 -17  -3   25.30    6.50
   5 -17   4    5.50    3.50
  -5 -17  -4    5.50    4.20
  -5 -17  -5   -0.20    3.80
   5 -17   5    1.80    3.30
   5 -17   6    4.40    4.20
  -5 -17  -6   19.20    6.70
   5 -17   7    6.80    4.70
  -5 -17  -7    2.50    4.80
   5 -18  -8   30.50    8.80
  -5 -18   8   17.10    5.20
   5 -18  -7    6.20    5.60
  -5 -18   7    1.40    3.00
  -5 -18   6    0.40    2.40
   5 -18  -6    7.20    5.70
  -5 -18   5    7.40    3.50
   5 -18  -5    4.00    5.00
   5 -18  -4   11.80    5.90
  -5 -18   4    5.00    2.90
  -5 -18   4    4.50    2.90
   5 -18  -3    9.90    5.10
  -5 -18   3    5.60    2.90
  -5 -18   3    2.40    2.80
  -5 -18   2    6.10    3.70
   5 -18  -2    1.90    4.00
   5  18  -1   48.90    5.50
  -5 -18   1   51.69    7.60
   5 -18  -1   40.70    7.20
   5  18   0    0.50    2.00
   5 -18   0   -4.00    2.90
  -5 -18   0    6.50    4.30
   5 -18   1   -0.30    3.00
  -5 -18  -1   -5.80    2.50
  -5 -18  -2   -1.20    3.70
   5 -18   2   -1.80    3.00
  -5 -18  -3   -2.00    3.80
   5 -18   3    1.30    2.80
  -5 -18  -4    3.10    4.50
   5 -18   4   -1.30    2.80
   5 -18   5   -1.40    3.30
  -5 -18  -5    2.40    4.70
   5 -18   6    2.60    3.90
  -5 -18  -6   16.00    6.50
  -5 -18  -7    4.30    5.40
   5 -18   7    3.60    4.00
   5 -19  -7   17.50    7.40
  -5 -19   7   16.10    5.20
  -5 -19   6   -0.40    2.70
   5 -19  -6   -1.30    5.20
  -5 -19   5    2.80    3.00
   5 -19  -5    3.60    5.20
   5 -19  -4   30.10    7.50
  -5 -19   4   29.00    5.00
  -5 -19   4   32.60    5.70
  -5 -19   3    6.90    3.60
  -5 -19   3   10.40    3.50
   5 -19  -3    6.60    5.10
   5  19  -2    4.60    2.80
  -5 -19   2    2.20    3.40
   5 -19  -2    3.90    4.40
   5  19  -1    8.00    2.90
   5 -19  -1   10.40    5.10
  -5 -19   1    5.50    3.80
  -5 -19   0   -2.10    3.20
   5 -19   0   -1.40    3.30
  -5 -19  -1    1.20    3.90
   5 -19   1    5.10    4.00
   5 -19   2    4.40    3.90
  -5 -19  -2    5.70    4.90
  -5 -19  -3    1.40    4.30
   5 -19   4    4.60    3.30
  -5 -19  -4   -1.40    3.20
   5 -19   5   17.80    5.40
  -5 -19  -5   15.80    6.50
  -5 -19  -6    9.70    5.90
   5 -19   6    2.10    3.80
   5 -20  -7    0.80    6.80
  -5 -20   7    1.70    3.50
  -5 -20   6   15.10    4.80
   5 -20  -6   30.20    8.60
  -5 -20   5   -1.40    2.50
   5 -20  -5   -1.70    4.80
   5 -20  -4   17.60    6.50
  -5 -20   4    9.10    3.50
  -5 -20   3    6.40    3.60
  -5 -20   3    9.20    3.40
   5 -20  -3    8.70    5.40
   5  20  -2   27.60    4.60
  -5 -20   2   37.30    6.70
   5 -20  -2   34.80    7.40
  -5 -20   1   18.30    5.50
   5 -20  -1   11.20    5.20
  -5 -20   0    1.40    3.90
   5 -20   0   -0.60    4.00
   5 -20   1    7.80    4.60
  -5 -20  -1    4.30    4.50
  -5 -20  -2    2.10    4.50
  -5 -20  -3   13.60    6.00
  -5 -20  -4    0.60    4.60
   5 -20   5   10.70    5.50
  -5 -20  -5   -2.10    4.20
  -5 -21   6    1.00    3.10
   5 -21  -6   -0.70    6.10
   5 -21  -5    7.60    6.50
  -5 -21   5    6.60    3.60
  -5 -21   4   19.10    4.50
   5 -21  -4   33.70    8.50
  -5 -21   3   -3.70    3.00
   5 -21  -3   -1.40    4.60
   5 -21  -2   -5.80    3.90
  -5 -21   2   -0.90    3.20
   5 -21  -1   22.30    6.20
  -5 -21   1   26.10    6.20
   5 -21   0    5.20    4.90
  -5 -21   0    4.40    4.20
  -5 -21  -1    3.70    4.70
   5 -21   1   -5.90    3.30
  -5 -21  -2    2.40    4.60
  -5 -21  -3   10.10    6.00
  -5 -21  -4   25.50    7.70
   5 -22  -4   -3.40    4.80
  -5 -22   4   -1.40    2.60
   5 -22  -3    2.20    6.10
  -5 -22   3    8.10    7.30
   5 -22  -2   -9.40    3.70
  -5 -22   2    2.20    4.20
  -5 -22   1   34.50    7.10
   5 -22  -1   18.70    6.50
  -5 -22   0   -3.40    3.50
   5 -22   0    6.00    5.30
  -5 -22  -1    1.40    4.40
   5 -22   1   -2.10    5.10
  -5 -22  -2    5.40    6.00
  -5 -22  -3    5.80    5.50
   5 -23  -2   35.10    8.90
  -5 -23   2   15.30    5.60
  -5 -23   1    3.40    4.30
   5 -23  -1    2.10    5.40
  -5 -23   0   -2.00    3.70
   5 -23   0    4.90    5.50
  -6   0  13    2.70    3.60
  -6   0  12   -0.50    3.10
  -6   0  11   -1.50    2.10
  -6   0  10    2.30    2.80
   6   0  -9    1.90    2.10
  -6   0   9   -2.00    2.10
  -6   0   8    0.30    1.90
   6   0  -8    1.50    2.00
  -6   0   7    1.30    1.80
  -6   0   6   37.00    4.10
  -6   0   6   29.40    3.50
  -6   0   5    1.30    1.40
  -6   0   5    0.10    1.40
  -6   0   4 1209.18   27.70
  -6   0   4 1193.08   25.30
  -6   0   3   -0.40    1.00
  -6   0   3    0.20    1.00
  -6   0   2   98.39    5.10
   6   0  -2   89.99    4.10
   6   0  -1   -0.40    0.80
  -6   0   1    0.10    1.10
  -6   0   0   -0.80    0.90
   6   0   0    1.00    1.00
  -6   0  -1   -0.10    1.00
   6   0   1   -0.50    1.00
  -6   0  -2  349.57   10.80
   6   0   2  330.67   10.30
   6   0   3   -0.30    1.40
  -6   0  -3    1.90    1.40
   6   0   4  388.16   12.70
  -6   0  -4  378.26   11.90
  -6   0  -5    0.20    1.40
   6   0   5   -0.10    1.90
   6   0   6  168.98    9.20
  -6   0  -6  166.18    7.50
   6   0   7   -0.30    2.50
  -6   0  -7    0.40    1.50
   6   0   8  172.18   10.60
   6   0   9   -3.20    3.40
   6   0  10   -1.20    3.40
   6   0  11    0.00    3.90
  -6   1  13   -1.00    3.40
  -6  -1  13   -2.70    3.10
  -6   1  12   -5.10    2.40
  -6  -1  12   -0.70    3.20
  -6   1  11    6.10    3.20
  -6  -1  11   -2.00    2.70
  -6   1  10   46.40    5.90
  -6  -1  10   44.40    6.10
   6  -1 -10   44.80    5.90
   6   1  -9   31.90    4.30
  -6   1   9   29.90    4.60
   6  -1  -9   28.20    4.60
  -6  -1   9   26.00    4.60
   6   1  -8   64.29    5.20
  -6   1   8   56.19    5.00
  -6  -1   8   64.69    5.50
   6  -1  -8   70.29    5.80
  -6   1   7   33.20    3.90
  -6  -1   7   36.20    4.40
  -6  -1   7   28.40    3.90
   6  -1  -7   32.30    4.50
  -6   1   6    2.90    1.80
  -6   1   6    4.80    2.00
  -6  -1   6    2.40    1.70
  -6  -1   6    4.90    2.00
  -6   1   5   -0.30    1.30
  -6   1   5    0.20    1.20
  -6  -1   5    0.10    1.20
  -6  -1   5    1.30    1.50
  -6   1   4    2.20    1.30
  -6   1   4    2.10    1.60
  -6  -1   4    1.10    1.30
  -6  -1   4    1.90    1.40
  -6   1   3   -1.20    1.00
   6  -1  -3   -0.70    0.80
  -6  -1   3    1.10    1.20
  -6  -1   3    3.30    1.40
   6   1  -2  221.08    7.10
  -6   1   2  227.88    8.30
  -6  -1   2  224.48    8.10
   6  -1  -2  223.18    6.90
  -6   1   1  119.99    5.60
   6   1  -1  122.69    5.00
   6  -1  -1  115.49    4.70
  -6  -1   1  122.39    5.70
  -6   1   0  221.88    7.90
   6   1   0  206.98    7.10
   6  -1   0  202.18    6.80
  -6  -1   0  218.18    8.00
   6   1   1  115.99    5.20
  -6   1  -1  127.09    5.70
   6  -1   1  120.69    5.30
  -6  -1  -1  125.29    5.90
  -6   1  -2   32.50    2.90
   6   1   2   34.50    3.50
  -6  -1  -2   25.70    3.20
   6  -1   2   31.40    3.40
   6   1   3   63.29    4.40
  -6   1  -3   70.29    4.30
  -6  -1  -3   58.29    4.20
   6  -1   3   58.29    4.40
   6   1   4    0.90    2.00
  -6   1  -4    1.80    1.40
  -6  -1  -4    1.40    1.40
   6  -1   4    0.30    1.70
  -6   1  -5   11.00    2.30
   6   1   5   12.50    3.10
   6  -1   5   13.60    3.50
  -6  -1  -5   13.70    2.50
  -6   1  -6    0.40    1.30
   6   1   6   -0.10    2.20
  -6  -1  -6    3.10    1.80
   6  -1   6    4.50    2.70
   6   1   7    6.80    3.20
  -6  -1  -7    8.20    2.40
   6  -1   7    8.90    3.50
   6   1   8    7.60    3.70
   6  -1   8    3.90    3.30
   6   1   9  101.19   10.00
   6  -1   9   96.29   10.10
   6   1  10    3.40    4.20
   6  -1  10    9.70    4.70
   6   1  11    1.80    3.70
   6  -1  11   -3.60    3.10
  -6  -2  13    7.40    4.60
  -6   2  12   -0.90    2.80
  -6  -2  12   -0.50    3.00
  -6   2  11   16.50    4.10
  -6  -2  11   15.30    4.60
  -6   2  10   32.00    4.80
  -6  -2  10   33.40    5.40
   6  -2 -10   31.00    5.30
  -6   2   9    3.70    2.30
   6   2  -9    4.80    2.30
   6  -2  -9    2.60    2.70
  -6  -2   9    3.60    3.10
  -6   2   8   45.90    4.80
   6   2  -8   48.60    5.00
  -6  -2   8   48.30    5.70
   6  -2  -8   37.00    5.00
  -6   2   7   38.40    4.10
  -6  -2   7   30.30    4.20
   6  -2  -7   31.50    4.60
  -6  -2   7   38.50    4.20
  -6   2   6   89.49    6.10
  -6   2   6   90.89    4.80
  -6  -2   6   90.79    5.60
  -6  -2   6   71.49    4.90
  -6   2   5    1.30    1.60
  -6   2   5    2.50    1.30
  -6  -2   5    2.70    1.80
  -6  -2   5    2.80    1.40
  -6   2   4    6.40    1.50
  -6   2   4    7.70    2.20
  -6  -2   4    9.10    2.10
  -6  -2   4    7.40    1.90
  -6   2   3   -1.30    1.00
  -6  -2   3   -0.10    1.00
  -6  -2   3   -0.30    1.10
   6  -2  -3   -0.20    0.80
   6   2  -2  841.22   18.90
  -6   2   2  833.42   20.60
   6  -2  -2  865.91   18.20
  -6  -2   2  839.52   20.40
  -6   2   1  255.77    8.70
   6   2  -1  242.28    7.70
   6  -2  -1  240.78    7.30
  -6  -2   1  230.88    8.50
  -6   2   0   10.20    2.00
   6   2   0    9.90    1.80
  -6  -2   0   10.40    2.20
   6  -2   0   12.20    2.00
   6   2   1  183.38    6.80
  -6   2  -1  180.58    7.00
  -6  -2  -1  176.08    7.40
   6  -2   1  181.68    6.70
   6   2   2   34.50    3.60
  -6   2  -2   33.20    3.00
   6  -2   2   25.60    3.20
  -6  -2  -2   34.10    3.70
   6   2   3  154.88    6.90
  -6   2  -3  150.88    6.30
  -6  -2  -3  156.28    7.10
   6  -2   3  141.69    6.90
   6   2   4   70.49    5.20
  -6   2  -4   68.39    4.20
   6  -2   4   71.09    5.40
  -6  -2  -4   75.39    5.20
  -6   2  -5   -1.00    1.10
   6   2   5   -2.20    1.60
   6  -2   5    0.80    2.40
  -6  -2  -5   -0.10    1.40
   6   2   6  358.76   13.50
  -6   2  -6  342.57   10.70
   6  -2   6  325.27   13.60
  -6  -2  -6  381.36   12.80
   6   2   7   59.49    6.70
  -6  -2  -7   57.29    4.90
   6  -2   7   47.00    6.40
   6   2   8    9.30    3.70
  -6  -2  -8   17.30    5.10
   6  -2   8   16.80    4.70
   6   2   9   54.99    7.50
   6  -2   9   38.60    6.90
   6   2  10   -0.20    3.70
   6  -2  10   10.40    4.90
   6   2  11   13.60    5.80
   6  -2  11   13.30    5.90
  -6  -3  13   14.40    5.20
  -6  -3  12    4.00    3.60
  -6   3  11    2.90    2.70
  -6  -3  11    8.10    3.80
  -6   3  10   53.99    5.90
  -6  -3  10   70.79    7.70
   6  -3 -10   62.09    7.10
  -6   3   9  128.99    7.30
   6  -3  -9  141.49    8.90
  -6  -3   9  126.99    8.60
  -6   3   8    0.40    1.90
  -6  -3   8    0.10    2.60
   6  -3  -8    4.40    2.70
  -6   3   7   44.50    3.80
   6  -3  -7   51.09    5.70
  -6  -3   7   47.50    5.50
  -6  -3   7   44.50    4.10
  -6   3   6   52.79    3.60
   6  -3  -6   59.99    5.20
  -6  -3   6   60.79    5.10
  -6  -3   6   60.69    4.30
  -6   3   5   21.90    3.50
  -6   3   5   19.60    2.30
  -6  -3   5   15.30    2.50
  -6  -3   5   21.20    3.20
  -6   3   4   69.39    4.90
  -6  -3   4   76.49    4.60
  -6  -3   4   72.79    4.50
  -6   3   3   30.30    3.80
   6  -3  -3   27.60    2.10
  -6  -3   3   32.20    3.40
  -6  -3   3   21.00    2.60
   6   3  -2  872.61   19.50
  -6   3   2  828.92   21.10
   6  -3  -2  835.02   18.00
  -6  -3   2  874.01   20.80
   6   3  -1   19.30    2.50
  -6   3   1   21.90    3.10
  -6  -3   1   20.30    2.90
   6  -3  -1   22.50    2.30
   6   3   0 1004.00   21.70
  -6   3   0  949.51   22.80
  -6  -3   0  960.30   23.40
   6  -3   0  990.70   21.00
  -6   3  -1   57.49    3.80
   6   3   1   66.79    4.00
   6  -3   1   62.29    3.90
  -6  -3  -1   59.19    4.20
  -6   3  -2   55.49    3.60
   6   3   2   47.70    3.60
   6  -3   2   42.20    4.20
  -6  -3  -2   55.29    4.30
   6   3   3   12.50    2.50
  -6   3  -3   11.70    2.00
  -6  -3  -3   18.30    3.10
   6  -3   3   13.60    2.90
  -6   3  -4   82.49    4.40
   6   3   4   92.19    5.50
   6  -3   4   65.69    5.40
  -6  -3  -4   81.99    5.50
   6   3   5   80.29    5.70
  -6   3  -5   75.89    4.30
  -6  -3  -5   74.29    5.50
   6  -3   5   74.39    6.10
   6   3   6   -0.90    2.10
  -6   3  -6    0.50    1.10
  -6  -3  -6   -0.10    1.70
   6  -3   6    0.70    2.40
   6   3   7   10.10    3.60
   6  -3   7   18.50    4.50
  -6  -3  -7   10.60    2.80
   6   3   8   -1.60    2.70
  -6  -3  -8    0.30    2.10
   6  -3   8    0.30    3.40
   6   3   9    0.10    3.10
   6  -3   9   -4.10    3.20
   6   3  10   13.00    4.90
   6  -3  10    8.70    4.70
   6   3  11    2.20    4.50
   6  -3  11    6.90    4.70
  -6  -4  13    3.30    4.20
  -6  -4  12    4.40    3.90
  -6  -4  11    3.90    3.70
   6  -4 -11    7.90    4.90
  -6   4  10   44.20    5.10
  -6  -4  10   38.40    6.10
   6  -4 -10   40.00    6.20
  -6   4   9   62.59    4.90
  -6  -4   9   62.39    7.20
   6  -4  -9   47.80    6.50
  -6   4   8   36.60    4.00
   6  -4  -8   42.00    5.90
  -6  -4   8   25.20    4.70
  -6  -4   8   32.70    3.90
  -6   4   7   12.50    2.20
  -6  -4   7    2.60    2.50
   6  -4  -7    9.60    3.30
  -6  -4   7    5.00    2.00
  -6   4   6   21.40    2.50
   6  -4  -6   14.40    3.40
  -6  -4   6   14.00    3.10
  -6  -4   6   19.60    2.90
  -6   4   5   19.90    2.20
  -6  -4   5   20.20    2.90
  -6  -4   5   22.00    3.40
  -6   4   4   10.80    2.70
   6  -4  -4   11.50    1.60
  -6  -4   4   12.60    2.40
  -6  -4   4   15.30    2.60
  -6   4   3  254.97    9.90
   6  -4  -3  258.57    7.10
  -6  -4   3  264.97    9.20
  -6  -4   3  272.87    8.90
  -6   4   2  116.29    6.20
   6  -4  -2  110.59    4.30
  -6  -4   2  129.89    6.10
  -6   4   1  107.49    5.70
   6   4  -1  108.99    5.00
   6  -4  -1  111.19    4.40
  -6  -4   1  112.09    5.80
  -6   4   0  178.28    7.30
   6   4   0  169.98    6.60
   6  -4   0  184.18    6.40
  -6  -4   0  190.18    7.80
   6   4   1   20.60    2.70
  -6   4  -1   21.00    2.70
   6  -4   1   13.80    2.30
  -6  -4  -1   15.50    2.80
   6   4   2    7.00    1.90
  -6   4  -2    8.70    1.80
   6  -4   2    7.40    2.30
  -6  -4  -2    3.70    1.80
  -6   4  -3   30.30    3.20
   6   4   3   27.60    3.30
   6  -4   3   29.30    3.90
  -6  -4  -3   34.70    4.10
   6   4   4   47.90    4.10
  -6   4  -4   38.20    3.10
   6  -4   4   37.70    4.80
  -6  -4  -4   40.40    4.70
   6   4   5   98.19    6.40
  -6   4  -5   93.79    4.60
  -6  -4  -5   83.09    6.00
   6  -4   5   92.39    6.90
   6   4   6   -0.50    2.20
   6  -4   6   -1.40    2.30
  -6  -4  -6    1.50    1.90
   6   4   7    3.60    2.60
  -6  -4  -7   -0.20    1.80
   6  -4   7   -3.90    2.40
   6   4   8    2.10    3.00
   6  -4   8    0.60    2.90
  -6  -4  -8    4.70    2.70
   6   4   9   -1.50    2.80
   6  -4   9   -5.70    2.60
   6   4  10   46.60    7.20
   6  -4  10   60.79    8.80
   6   4  11   -3.70    3.00
   6  -4  11    3.90    4.50
  -6  -5  13    0.90    4.00
  -6  -5  12   12.40    5.30
  -6  -5  11   19.20    5.50
   6  -5 -11    9.60    4.40
   6  -5 -10   -3.30    3.10
  -6  -5  10    0.50    3.20
  -6   5   9  171.08    7.60
   6  -5  -9  151.18    9.80
  -6  -5   9  153.98    9.80
  -6   5   8  113.89    5.70
  -6  -5   8  106.99    7.80
   6  -5  -8  104.99    7.90
  -6  -5   8  107.09    5.80
  -6   5   7   30.10    3.00
  -6  -5   7   25.90    3.30
  -6  -5   7   32.10    4.80
   6  -5  -7   25.50    4.80
  -6   5   6   15.60    2.10
  -6  -5   6   16.10    3.30
   6  -5  -6   11.60    3.40
  -6  -5   6   12.40    2.40
  -6  -5   5   13.10    2.30
  -6  -5   5   13.80    2.90
   6  -5  -5   13.50    3.40
  -6   5   4   49.99    4.50
  -6  -5   4   60.39    4.10
   6  -5  -4   60.59    2.80
  -6  -5   4   55.99    4.30
  -6   5   3   55.29    4.60
  -6  -5   3   54.89    4.00
  -6  -5   3   58.49    4.10
   6  -5  -3   48.60    2.50
  -6   5   2   95.29    5.70
   6  -5  -2   89.19    3.60
  -6  -5   2   89.19    4.80
  -6  -5   2   88.69    5.20
  -6   5   1  397.76   12.70
   6   5  -1  409.46   11.40
  -6  -5   1  413.36   12.70
   6  -5  -1  409.26   10.20
   6   5   0   10.60    2.10
  -6   5   0   15.10    2.50
  -6  -5   0   14.10    2.60
   6  -5   0   23.00    2.60
   6   5   1    1.10    1.20
  -6   5  -1   -1.20    0.80
  -6  -5  -1   -0.30    1.30
   6  -5   1   -1.20    1.30
  -6   5  -2  135.79    6.00
   6   5   2  124.49    5.90
  -6  -5  -2  129.19    7.00
   6  -5   2  129.79    6.40
   6   5   3    0.40    1.40
  -6   5  -3    0.80    1.10
   6  -5   3   -1.90    1.60
  -6  -5  -3    3.00    2.10
  -6   5  -4   18.20    2.50
   6   5   4   15.20    3.00
  -6  -5  -4   18.80    3.50
   6  -5   4   19.40    3.70
   6   5   5   -0.90    1.90
  -6   5  -5    3.20    1.30
  -6  -5  -5    1.40    1.90
   6  -5   5    0.70    2.50
   6   5   6    3.40    2.60
  -6  -5  -6    1.10    2.30
   6  -5   6    0.60    2.60
   6   5   7   -1.10    2.30
  -6  -5  -7    3.80    2.70
   6  -5   7    6.50    3.80
   6   5   8   27.70    5.10
  -6  -5  -8   19.20    4.10
   6  -5   8   33.90    6.60
   6   5   9    3.70    3.30
   6  -5   9    4.20    4.10
   6   5  10    5.50    4.30
   6  -5  10   12.50    5.40
   6   5  11    3.50    4.30
   6  -5  11    0.60    4.20
  -6  -6  12    8.20    4.40
   6  -6 -11   11.70    4.70
  -6  -6  11   10.10    4.40
  -6  -6  10   58.49    7.70
   6  -6 -10   46.20    7.00
  -6  -6   9  185.98   11.00
   6  -6  -9  186.78   11.10
  -6   6   8   13.10    2.40
   6  -6  -8   14.10    4.40
  -6  -6   8   15.60    4.10
  -6   6   7    8.80    1.70
  -6  -6   7    8.60    2.10
   6  -6  -7    7.70    3.30
  -6  -6   7    6.30    3.20
  -6   6   6   54.59    2.90
  -6  -6   6   52.99    3.90
  -6  -6   6   49.40    5.50
   6  -6  -6   43.40    5.80
  -6  -6   5    2.20    1.50
  -6  -6   5   -0.30    1.80
   6  -6  -5   -1.10    2.10
   6  -6  -5    1.00    0.80
  -6  -6   4    7.70    2.30
   6  -6  -4   11.60    1.40
  -6  -6   4    9.80    2.30
   6  -6  -4   12.00    3.20
  -6   6   3  132.39    7.40
  -6  -6   3  133.69    6.50
  -6  -6   3  130.69    6.20
   6  -6  -3  136.29    4.20
  -6   6   2    2.40    1.50
   6  -6  -2    1.80    1.00
  -6  -6   2    2.90    1.60
  -6  -6   2    2.70    1.50
   6   6  -1    2.80    1.50
  -6   6   1    4.00    1.80
  -6  -6   1    0.50    1.50
   6  -6  -1    4.00    1.30
   6   6   0    6.20    1.70
  -6   6   0    5.20    1.80
  -6  -6   0    7.40    2.30
   6  -6   0    5.90    1.70
  -6   6  -1  182.08    7.50
   6   6   1  175.38    6.90
   6  -6   1  169.08    6.90
  -6  -6  -1  178.98    8.30
  -6   6  -2  130.49    6.00
   6   6   2  125.39    5.80
   6  -6   2  129.69    6.70
  -6  -6  -2  121.29    7.10
  -6   6  -3   18.20    2.60
   6   6   3   16.00    2.70
   6  -6   3   15.30    3.20
  -6  -6  -3   19.60    3.60
   6   6   4  139.99    6.80
  -6   6  -4  132.89    5.60
  -6  -6  -4  138.79    8.10
   6  -6   4  125.59    7.80
   6   6   5   42.50    4.80
  -6   6  -5   38.10    2.90
   6  -6   5   43.10    5.80
  -6  -6  -5   38.80    5.20
   6   6   6   46.20    5.30
  -6  -6  -6   33.70    5.30
   6  -6   6   42.70    6.20
   6   6   7   -0.90    2.40
  -6  -6  -7    0.80    2.50
   6  -6   7    3.20    3.40
   6   6   8   -2.50    2.00
   6  -6   8    4.60    4.00
  -6  -6  -8   -1.80    1.90
   6   6   9   -2.90    2.80
   6  -6   9   -2.80    3.20
  -6  -6  -9    3.90    2.70
   6   6  10    0.90    3.60
   6  -6  10    1.20    3.90
   6   6  11   15.40    5.20
   6  -6  11    5.30    4.90
  -6  -7  12   -1.10    3.60
   6  -7 -11   29.80    6.50
  -6  -7  11   43.40    7.60
  -6  -7  10   32.80    6.40
   6  -7 -10   36.40    6.50
  -6  -7   9   59.69    7.60
   6  -7  -9   60.09    7.70
   6  -7  -8    7.10    3.70
  -6  -7   8    6.90    3.50
  -6   7   7   61.19    3.20
   6  -7  -7   61.89    7.20
  -6  -7   7   51.99    6.10
  -6  -7   7   59.29    4.30
  -6  -7   6    0.20    1.40
   6  -7  -6    1.30    0.90
   6  -7  -6    6.20    3.30
  -6  -7   6    1.60    2.40
  -6  -7   5    3.00    1.60
   6  -7  -5    0.00    2.20
  -6  -7   5   -1.20    1.70
   6  -7  -5    3.90    1.00
  -6  -7   4   16.90    2.80
  -6  -7   4   13.60    2.90
   6  -7  -4   15.40    1.40
   6  -7  -4   13.80    3.50
  -6  -7   3   33.00    3.70
   6  -7  -3   25.60    1.70
   6  -7  -3   23.50    4.00
  -6  -7   3   25.70    3.40
  -6   7   2   58.79    4.80
   6  -7  -2   57.09    2.80
  -6  -7   2   61.09    4.20
  -6  -7   2   57.59    4.40
  -6   7   1   -1.20    1.10
   6   7  -1   -2.70    0.80
  -6  -7   1   -0.50    1.40
   6  -7  -1    0.40    1.00
  -6   7   0    1.10    1.40
   6   7   0   -1.70    0.80
  -6  -7   0    3.50    2.00
   6  -7   0    0.20    1.30
  -6   7  -1  251.37    9.40
   6   7   1  259.67    8.80
  -6  -7  -1  243.98   10.40
   6  -7   1  247.78    8.80
   6   7   2  114.19    5.80
  -6   7  -2  119.99    5.90
   6  -7   2  121.59    6.40
  -6  -7  -2  124.99    7.40
  -6   7  -3  102.29    5.20
   6   7   3   98.69    5.40
  -6  -7  -3   85.59    6.60
   6  -7   3   96.29    6.70
  -6   7  -4   50.29    3.60
   6   7   4   54.69    4.40
  -6  -7  -4   47.00    5.70
   6  -7   4   50.89    5.80
   6   7   5   22.30    3.50
  -6   7  -5   23.80    4.10
   6  -7   5   27.40    4.80
  -6  -7  -5   18.50    4.20
   6   7   6   36.60    4.90
  -6  -7  -6   46.90    6.10
   6  -7   6   42.80    6.30
   6   7   7    5.10    3.00
  -6  -7  -7    1.70    2.40
   6  -7   7    3.80    3.40
   6   7   8   20.20    4.60
  -6  -7  -8   24.20    5.10
   6  -7   8   24.20    6.20
   6   7   9   -1.00    3.00
   6  -7   9    1.40    3.40
  -6  -7  -9    3.80    3.20
   6   7  10    5.20    4.20
   6  -7  10   12.50    5.20
  -6  -8  12   14.20    5.10
   6  -8 -11   -0.30    4.50
  -6  -8  11    9.60    4.70
   6  -8 -10   11.20    5.10
  -6  -8  10    4.60    3.60
  -6  -8   9   13.00    4.40
   6  -8  -9   27.00    5.90
  -6  -8   8    1.00    2.80
   6  -8  -8    6.40    4.20
  -6  -8   7  168.98    9.60
   6  -8  -7  164.48   10.30
  -6  -8   7  155.48    6.80
  -6  -8   6   53.39    4.00
   6  -8  -6   58.19    7.00
  -6  -8   6   52.29    5.90
  -6  -8   5   39.20    4.80
  -6  -8   5   35.80    3.90
   6  -8  -5   34.10    1.50
   6  -8  -5   29.20    5.10
  -6  -8   4  237.38    9.20
   6  -8  -4  230.78   11.20
  -6  -8   4  258.97   10.00
   6  -8  -4  233.98    5.30
  -6  -8   3   14.70    2.80
  -6  -8   3   15.40    2.80
   6  -8  -3   13.90    3.40
   6  -8  -3   19.20    1.60
  -6  -8   2   45.40    4.70
  -6  -8   2   45.20    3.80
   6  -8  -2   45.80    2.60
   6  -8  -2   46.40    5.30
   6   8  -1   40.90    3.50
  -6  -8   1   36.90    4.40
   6  -8  -1   38.00    2.90
   6  -8  -1   39.40    4.80
   6   8   0  193.38    7.70
   6  -8   0  205.48    7.30
  -6  -8   0  202.88    9.30
   6   8   1   -0.70    1.10
  -6   8  -1    2.10    1.60
   6  -8   1   -0.30    1.60
  -6  -8  -1    0.30    1.80
   6   8   2   25.60    3.20
  -6   8  -2   36.80    4.00
   6  -8   2   25.20    3.90
  -6  -8  -2   26.10    4.30
   6   8   3    1.40    1.60
  -6   8  -3    0.60    1.40
   6  -8   3   -0.20    2.20
  -6  -8  -3   -1.40    2.20
   6   8   4  509.15   14.60
   6  -8   4  474.25   16.50
  -6  -8  -4  508.45   17.80
   6   8   5   20.60    3.70
   6  -8   5    8.80    3.70
  -6  -8  -5    8.60    3.40
   6   8   6   27.90    4.50
   6  -8   6   27.80    5.50
  -6  -8  -6   25.60    4.90
   6   8   7   37.30    5.50
   6  -8   7   32.80    6.10
  -6  -8  -7   36.30    6.00
   6   8   8   -0.50    2.50
  -6  -8  -8   -1.60    2.80
   6  -8   8    2.40    3.30
   6   8   9   36.40    6.20
  -6  -8  -9   30.10    5.80
   6  -8   9   28.10    6.90
   6   8  10   11.90    4.80
   6  -8  10   10.10    5.20
   6  -9 -12   -0.30    5.10
  -6  -9  12   -1.30    3.50
   6  -9 -11   -0.90    4.50
  -6  -9  11    1.90    3.60
  -6  -9  10   11.40    4.50
   6  -9 -10    1.40    4.30
  -6  -9   9   22.70    5.40
   6  -9  -9   10.60    4.80
  -6  -9   8   16.80    4.30
   6  -9  -8   19.60    5.40
  -6  -9   7   16.90    4.10
  -6  -9   7   12.00    2.50
   6  -9  -7   20.90    5.10
  -6  -9   6   12.00    3.50
   6  -9  -6    9.70    4.10
  -6  -9   6    8.20    2.40
  -6  -9   5   49.10    4.20
   6  -9  -5   40.40    6.00
  -6  -9   5   60.19    6.10
  -6  -9   4   37.80    4.30
   6  -9  -4   34.10    5.40
  -6  -9   4   29.50    4.10
   6  -9  -3   -1.20    2.10
  -6  -9   3    1.50    1.60
   6  -9  -3    0.70    0.80
  -6  -9   3    2.90    1.90
   6  -9  -2   28.00    4.40
  -6  -9   2   29.10    4.00
   6  -9  -2   32.10    2.40
  -6  -9   2   22.70    3.30
   6   9  -1   92.49    5.40
   6  -9  -1   96.29    4.50
   6  -9  -1   89.79    6.40
  -6  -9   1  110.79    6.80
   6   9   0   -1.20    1.00
  -6  -9   0    1.90    2.20
   6  -9   0    1.80    1.60
   6  -9   0   -0.30    1.70
   6   9   1    3.00    1.50
   6  -9   1    0.00    1.70
   6  -9   1    6.80    2.30
  -6  -9  -1    3.60    2.40
   6   9   2    2.70    1.70
   6  -9   2    4.20    2.20
  -6  -9  -2    4.80    2.80
   6  -9   2    2.60    2.10
   6   9   3    3.20    1.80
  -6  -9  -3   -0.20    2.40
   6  -9   3    4.60    2.10
   6  -9   3    7.00    2.90
   6   9   4   -0.80    1.60
  -6  -9  -4    1.60    2.20
   6  -9   4    1.30    2.70
   6  -9   4   -0.60    1.50
   6   9   5   62.69    5.10
  -6  -9  -5   50.59    6.60
   6  -9   5   62.29    7.20
   6   9   6   12.10    3.30
  -6  -9  -6   19.20    4.70
   6  -9   6   13.00    4.30
   6   9   7   38.20    5.40
  -6  -9  -7   37.60    6.40
   6  -9   7   41.80    6.90
   6   9   8   14.70    4.10
  -6  -9  -8   11.40    4.40
   6  -9   8    6.70    4.10
   6   9   9    4.90    3.50
  -6  -9  -9    1.00    3.50
   6  -9   9   -3.20    2.90
   6  -9  10    2.80    4.40
   6 -10 -12    9.90    6.40
  -6 -10  12    4.70    5.10
  -6 -10  11   15.90    5.30
   6 -10 -11   13.10    5.60
  -6 -10  10   11.80    4.50
   6 -10 -10    7.50    4.80
   6 -10  -9    5.00    4.40
  -6 -10   9    1.40    3.00
  -6 -10   8   -1.20    2.50
   6 -10  -8    1.20    3.50
  -6 -10   7   -3.50    2.00
   6 -10  -7   -0.10    3.20
  -6 -10   6  816.22   23.60
   6 -10  -6  803.72   26.00
  -6 -10   6  785.92   20.40
  -6 -10   5   10.20    3.30
   6 -10  -5    4.60    3.60
  -6 -10   5    7.50    2.30
   6 -10  -4  260.77   12.70
  -6 -10   4  268.27   10.90
  -6 -10   4  270.87   10.50
  -6 -10   3   11.30    2.80
  -6 -10   3   16.00    3.30
   6 -10  -3    7.40    3.30
   6 -10  -2    7.40    3.20
  -6 -10   2   10.00    2.50
   6 -10  -2   11.00    1.70
  -6 -10   2    9.80    2.80
   6  10  -1   -0.40    1.40
   6 -10  -1   -1.00    1.80
   6 -10  -1   -0.90    1.20
  -6 -10   1   -0.20    1.80
   6  10   0   52.69    4.10
   6 -10   0   49.10    5.50
  -6 -10   0   53.99    6.10
   6 -10   0   48.50    4.00
   6  10   1  126.29    6.20
   6 -10   1  115.19    6.40
  -6 -10  -1  110.69    7.80
   6 -10   1  138.19    7.60
   6  10   2   57.29    4.30
  -6 -10  -2   56.69    6.60
   6 -10   2   56.29    4.90
   6 -10   2   66.99    5.60
   6  10   3   26.30    3.50
   6 -10   3   33.00    5.20
  -6 -10  -3   37.40    5.80
   6 -10   3   28.00    3.80
   6  10   4   83.29    5.30
   6 -10   4   74.39    4.80
   6 -10   4   57.89    6.70
  -6 -10  -4   64.99    7.50
   6  10   5   -2.30    1.60
  -6 -10  -5    0.60    2.70
   6 -10   5   -1.60    2.30
   6  10   6    3.70    2.60
  -6 -10  -6    3.20    3.20
   6 -10   6   -0.90    2.90
   6  10   7   10.50    3.50
  -6 -10  -7    7.00    4.00
   6 -10   7   12.90    4.70
   6  10   8   62.29    7.00
   6 -10   8   57.09    8.50
  -6 -10  -8   57.19    8.30
   6 -10   9    5.50    4.40
  -6 -10  -9    9.50    4.10
  -6 -10 -10    0.30    4.20
   6 -10  10    7.40    4.60
   6 -11 -11    0.30    5.20
  -6 -11  11   -5.50    3.00
  -6 -11  10   -1.40    3.10
   6 -11 -10   -0.30    5.00
  -6 -11   9    2.40    3.30
   6 -11  -9    2.10    3.90
  -6 -11   8   -0.50    2.60
   6 -11  -8    4.50    4.70
   6 -11  -7   21.50    5.70
  -6 -11   7   16.30    4.30
   6 -11  -6   -1.00    3.00
  -6 -11   6   -1.60    1.40
  -6 -11   6    4.30    3.00
  -6 -11   5  110.69    7.50
   6 -11  -5   92.49    8.40
  -6 -11   5   99.49    6.10
   6 -11  -4  161.68   10.40
  -6 -11   4  171.18    8.80
  -6 -11   4  163.98    8.20
   6 -11  -3    1.70    2.90
  -6 -11   3    0.10    1.80
  -6 -11   3   -0.30    1.70
  -6 -11   2   26.20    3.70
  -6 -11   2   20.80    4.00
   6 -11  -2   23.20    2.20
   6 -11  -2   16.40    4.10
   6  11  -1  129.89    6.80
   6 -11  -1  134.29    8.30
  -6 -11   1  132.79    8.10
   6 -11  -1  131.39    5.60
   6  11   0   78.49    5.10
   6 -11   0   73.99    6.40
  -6 -11   0   70.99    6.50
   6 -11   0   78.69    4.90
   6  11   1  128.09    6.40
  -6 -11  -1  118.09    8.30
   6 -11   1  128.19    6.90
   6 -11   1  128.89    7.70
   6  11   2   41.90    4.40
   6 -11   2   34.40    4.40
   6 -11   2   42.30    5.10
  -6 -11  -2   42.00    6.00
   6  11   3    1.80    1.70
   6 -11   3   -2.40    1.90
  -6 -11  -3   -0.40    2.70
   6 -11   3    1.40    2.20
   6  11   4    3.40    2.00
   6 -11   4    4.40    2.80
  -6 -11  -4    3.60    3.50
   6 -11   4    3.60    2.10
   6  11   5   20.60    3.70
  -6 -11  -5   29.00    5.70
   6 -11   5   21.50    4.90
   6  11   6    2.20    2.40
   6 -11   6   -1.60    2.70
  -6 -11  -6    5.70    3.60
   6  11   7   50.19    6.10
   6 -11   7   39.10    6.90
  -6 -11  -7   33.40    6.40
  -6 -11  -8   10.70    4.90
   6 -11   8   25.00    6.50
  -6 -11  -9   43.70    7.70
   6 -11   9   50.29    9.10
   6 -12 -11   13.70    6.40
  -6 -12  11    1.90    4.40
   6 -12 -10    1.50    4.90
  -6 -12  10   -2.10    3.60
   6 -12  -9   -4.90    3.40
  -6 -12   9   -6.00    2.40
  -6 -12   8    0.90    2.80
   6 -12  -8    3.50    4.30
   6 -12  -7    6.80    4.30
  -6 -12   7    7.50    3.60
  -6 -12   6   -0.10    1.60
   6 -12  -6   10.00    4.60
  -6 -12   6    2.30    2.80
  -6 -12   5    7.70    2.60
   6 -12  -5    1.30    2.50
  -6 -12   5    5.70    2.80
  -6 -12   4   15.80    3.20
  -6 -12   4   15.00    3.60
   6 -12  -4   13.90    4.50
  -6 -12   3  128.79    7.80
   6 -12  -3  125.69    9.00
  -6 -12   3  117.49    7.00
   6 -12  -2   14.30    4.20
  -6 -12   2   10.30    2.60
  -6 -12   2    6.20    2.70
   6  12  -1    5.70    2.20
  -6 -12   1    9.30    3.20
   6 -12  -1    0.60    2.70
   6 -12  -1    4.10    1.80
   6  12   0    2.90    1.70
   6 -12   0   -0.60    1.70
  -6 -12   0    5.10    3.00
   6 -12   0    0.20    2.50
   6  12   1  275.47   10.00
  -6 -12  -1  291.47   13.40
   6 -12   1  268.27   10.40
   6 -12   1  271.77   11.70
   6  12   2    3.70    2.00
  -6 -12  -2   -0.20    2.80
   6 -12   2    2.10    2.40
   6 -12   2    0.70    2.40
   6  12   3  106.59    6.00
  -6 -12  -3  112.19    9.00
   6 -12   3   99.19    6.40
   6 -12   3  102.79    7.50
   6  12   4   -0.30    1.50
  -6 -12  -4    0.20    3.00
   6 -12   4    0.00    2.50
   6  12   5   20.10    3.70
   6 -12   5   15.20    4.70
  -6 -12  -5   27.90    5.90
   6  12   6    4.00    2.50
   6 -12   6    2.90    3.60
  -6 -12  -6    1.50    3.40
  -6 -12  -7   10.60    4.00
   6 -12   7   21.70    5.80
  -6 -12  -8   -2.40    3.10
   6 -12   8   -2.70    3.50
  -6 -12  -9    0.90    3.70
   6 -12   9    4.00    4.20
  -6 -13  11   23.50    6.40
   6 -13 -11   16.50    7.40
   6 -13 -10    1.80    5.00
  -6 -13  10    0.60    3.30
  -6 -13   9   -1.40    3.60
   6 -13  -9    0.90    4.40
  -6 -13   8    6.40    3.50
   6 -13  -8   -2.20    3.70
  -6 -13   7    8.70    3.80
   6 -13  -7    1.90    3.90
  -6 -13   6   15.30    4.10
  -6 -13   6   24.00    4.40
   6 -13  -6   28.10    6.50
   6 -13  -5   43.90    7.30
  -6 -13   5   40.60    5.40
  -6 -13   5   47.60    5.20
  -6 -13   4   90.29    6.60
   6 -13  -4   95.29    9.70
  -6 -13   4   98.09    6.60
   6 -13  -3  137.59   10.00
  -6 -13   3  131.49    8.10
  -6 -13   3  143.69    7.70
  -6 -13   2   16.30    3.20
  -6 -13   2   21.90    4.20
   6 -13  -2   14.50    4.50
   6  13  -1   21.00    3.50
   6 -13  -1   29.20    3.20
   6 -13  -1   29.10    5.30
  -6 -13   1   25.30    4.90
   6  13   0    3.40    1.80
   6 -13   0    1.60    1.90
   6 -13   0    1.50    2.70
  -6 -13   0    3.00    2.80
   6  13   1   37.80    4.30
   6 -13   1   43.30    4.90
  -6 -13  -1   36.20    6.10
   6 -13   1   33.00    5.10
   6  13   2   24.00    3.70
   6 -13   2   28.00    4.60
  -6 -13  -2   22.80    5.20
   6 -13   2   23.60    4.30
   6  13   3   15.60    2.90
  -6 -13  -3   22.30    5.40
   6 -13   3   24.10    4.10
   6  13   4   11.70    2.70
  -6 -13  -4    7.40    4.30
   6 -13   4    2.80    2.70
   6  13   5   56.29    4.90
   6 -13   5   64.59    7.90
  -6 -13  -5   63.59    8.50
   6  13   6   -3.40    3.20
  -6 -13  -6    2.40    3.80
   6 -13   6   -2.00    2.70
   6 -13   7   -0.40    3.40
  -6 -13  -7   -0.10    3.60
  -6 -13  -8   13.10    5.20
   6 -13   8   19.60    5.90
   6 -13   9   24.60    7.10
  -6 -13  -9   29.30    7.10
   6 -14 -10    0.50    5.00
  -6 -14  10   -4.70    2.80
  -6 -14   9    6.50    4.20
   6 -14  -9    3.20    5.40
   6 -14  -8   -4.10    3.90
  -6 -14   8    0.30    3.00
  -6 -14   7   -0.70    2.40
   6 -14  -7    8.50    4.70
   6 -14  -6   19.30    6.00
  -6 -14   6   17.10    4.10
  -6 -14   5    2.80    2.50
  -6 -14   5    6.10    2.50
   6 -14  -5   -0.50    3.60
   6 -14  -4   16.00    5.20
  -6 -14   4    4.70    2.60
  -6 -14   4    3.90    2.50
  -6 -14   3   49.99    5.90
  -6 -14   3   49.60    5.60
   6 -14  -3   44.50    7.00
  -6 -14   2    1.50    2.30
   6 -14  -2    0.10    2.90
  -6 -14   2    0.40    1.80
   6  14  -1   -0.50    1.80
  -6 -14   1   -1.10    2.30
   6 -14  -1    3.30    3.40
   6  14   0    7.30    2.50
  -6 -14   0    3.00    3.00
   6 -14   0    7.60    3.70
   6 -14   0    5.30    2.30
   6  14   1   24.60    3.60
   6 -14   1   27.00    4.20
   6 -14   1   30.00    5.20
  -6 -14  -1   23.80    5.40
   6  14   2   37.60    4.40
  -6 -14  -2   37.30    6.40
   6 -14   2   32.80    4.90
   6 -14   2   38.10    5.50
   6  14   3    7.30    2.40
  -6 -14  -3   11.00    4.10
   6 -14   3    8.50    3.00
   6 -14   3    6.00    3.20
   6  14   4   20.70    3.50
   6 -14   4   13.70    4.10
  -6 -14  -4   22.70    5.70
   6  14   5   -2.20    3.20
  -6 -14  -5    4.50    4.00
   6 -14   5    0.10    2.80
   6 -14   6   38.00    6.80
  -6 -14  -6   32.20    7.30
   6 -14   7   -1.40    3.50
  -6 -14  -7   -5.00    2.80
   6 -14   8   32.40    7.30
  -6 -14  -8   24.20    6.40
  -6 -15  10   25.70    6.60
   6 -15 -10   24.30    8.40
   6 -15  -9   14.90    6.50
  -6 -15   9    2.80    4.20
   6 -15  -8    5.70    5.20
  -6 -15   8   -2.30    2.80
  -6 -15   7    6.40    3.40
   6 -15  -7   10.40    5.30
  -6 -15   6    5.30    3.20
   6 -15  -6    2.70    4.20
  -6 -15   5   -0.70    1.80
   6 -15  -5    6.30    4.40
  -6 -15   5   -0.70    2.20
  -6 -15   4    2.60    2.70
   6 -15  -4   -2.30    3.30
  -6 -15   4    3.40    2.60
   6 -15  -3   25.20    5.80
  -6 -15   3   23.40    4.40
  -6 -15   3   18.10    3.70
   6 -15  -2   41.00    6.80
  -6 -15   2   62.79    7.20
   6  15  -1   88.39    6.10
  -6 -15   1   70.19    7.90
   6 -15  -1   79.29    8.60
   6  15   0   31.00    4.20
  -6 -15   0   31.40    5.80
   6 -15   0   22.50    5.30
   6  15   1   57.59    4.80
   6 -15   1   62.59    7.20
   6 -15   1   68.09    5.60
  -6 -15  -1   61.09    8.00
   6  15   2   26.70    3.90
   6 -15   2   28.60    4.70
  -6 -15  -2   25.20    5.80
   6 -15   2   27.90    5.20
   6  15   3   12.00    2.80
   6 -15   3   14.80    4.10
   6 -15   3   11.60    3.60
  -6 -15  -3    9.50    4.20
   6  15   4   14.20    4.10
   6 -15   4    9.90    3.90
  -6 -15  -4    8.10    4.80
  -6 -15  -5   22.10    6.20
   6 -15   5   20.00    5.30
  -6 -15  -6    3.20    4.50
   6 -15   6   -2.10    3.40
   6 -15   7   10.40    4.80
  -6 -15  -7   10.20    5.40
   6 -15   8    3.30    4.80
  -6 -15  -8   -1.80    3.90
   6 -16  -9   16.00    6.90
  -6 -16   9   17.10    5.60
  -6 -16   8   12.50    4.80
   6 -16  -8    8.80    5.80
   6 -16  -7   -3.70    3.80
  -6 -16   7    6.70    4.10
   6 -16  -6   11.50    5.50
  -6 -16   6    7.40    3.60
  -6 -16   5    5.10    3.20
   6 -16  -5    4.30    4.80
  -6 -16   5    3.40    2.50
   6 -16  -4   -1.10    3.50
  -6 -16   4    0.20    2.30
  -6 -16   4    3.10    2.70
   6 -16  -3   11.90    5.20
  -6 -16   3    3.20    2.90
  -6 -16   3    4.50    2.90
   6  16  -2    6.10    2.80
   6 -16  -2   10.30    4.60
  -6 -16   2    8.00    3.50
   6  16  -1    0.50    2.00
   6 -16  -1   -0.10    3.10
  -6 -16   1    2.20    2.90
   6  16   0    1.00    2.00
  -6 -16   0    4.00    3.20
   6 -16   0    3.50    3.60
   6  16   1   24.70    3.80
   6 -16   1   25.30    5.30
  -6 -16  -1   36.40    6.80
   6 -16   1   24.60    5.00
   6  16   2   38.40    4.70
  -6 -16  -2   36.70    6.60
   6 -16   2   37.80    5.90
   6 -16   2   46.70    5.90
   6  16   3   17.10    3.80
   6 -16   3   18.50    4.50
  -6 -16  -3   11.90    5.00
   6 -16   4   11.50    4.20
  -6 -16  -4    6.50    4.50
   6 -16   5    1.90    3.40
  -6 -16  -5    4.90    4.60
  -6 -16  -6    0.20    4.20
   6 -16   6    3.80    3.60
  -6 -16  -7   27.80    7.60
   6 -16   7   34.80    7.20
  -6 -17   9   -1.90    3.20
   6 -17  -9   -8.50    4.60
  -6 -17   8    3.90    3.80
   6 -17  -8    3.90    5.70
  -6 -17   7   11.20    4.20
   6 -17  -7    1.40    5.30
   6 -17  -6    2.80    5.10
  -6 -17   6    0.00    2.70
  -6 -17   5   19.00    4.40
   6 -17  -5   30.80    7.50
   6 -17  -4    3.60    4.30
  -6 -17   4    4.60    2.90
  -6 -17   4    0.90    2.30
  -6 -17   3    3.10    2.50
  -6 -17   3    4.90    2.70
   6 -17  -3    3.30    4.10
   6  17  -2    3.90    2.50
   6 -17  -2   -3.70    3.20
  -6 -17   2    5.30    3.30
   6  17  -1    7.70    2.70
   6 -17  -1    3.90    3.90
  -6 -17   1    8.90    4.10
   6  17   0   24.50    4.00
  -6 -17   0   25.90    5.90
   6 -17   0   25.30    5.50
   6  17   1    0.20    1.90
  -6 -17  -1   -2.80    2.80
   6 -17   1    5.70    3.70
   6  17   2   28.80    4.20
  -6 -17  -2   33.80    7.00
   6 -17   2   18.00    4.80
   6 -17   2   25.90    4.80
   6 -17   3   31.80    5.40
  -6 -17  -3   34.10    7.10
  -6 -17  -4   13.10    5.60
   6 -17   4   19.80    5.00
  -6 -17  -5    7.10    5.30
   6 -17   5   14.40    4.50
  -6 -17  -6   33.60    8.10
   6 -17   6   27.70    6.40
  -6 -17  -7    5.00    5.30
   6 -17   7    3.20    3.90
  -6 -18   8    6.40    3.90
   6 -18  -8    1.70    6.30
   6 -18  -7   -0.40    4.70
  -6 -18   7    5.60    3.60
   6 -18  -6    0.00    4.60
  -6 -18   6    4.60    3.40
   6 -18  -5    2.30    4.90
  -6 -18   5   -0.40    2.30
   6 -18  -4    7.50    5.20
  -6 -18   4    1.80    3.00
  -6 -18   4   -0.20    2.10
  -6 -18   3    4.90    2.80
   6 -18  -3   17.40    5.70
  -6 -18   3    9.50    3.70
   6  18  -2   -0.20    1.90
  -6 -18   2   -2.30    2.40
   6 -18  -2    0.40    3.90
   6  18  -1    7.10    2.70
   6 -18  -1    1.10    3.80
  -6 -18   1   -3.90    2.60
   6  18   0    1.80    2.50
   6 -18   0   -3.80    3.20
  -6 -18   0    5.30    4.00
   6  18   1    1.30    2.10
  -6 -18  -1    2.10    3.60
   6 -18   1    2.10    3.30
  -6 -18  -2    2.90    4.40
   6 -18   2   -0.90    3.20
   6 -18   3    5.90    3.80
  -6 -18  -3    2.90    4.20
   6 -18   4   27.50    5.70
  -6 -18  -4   15.70    6.10
  -6 -18  -5    0.40    4.40
   6 -18   5   -0.30    3.20
  -6 -18  -6   -3.40    4.20
   6 -18   6   11.90    4.80
   6 -19  -7    0.00    5.40
  -6 -19   7    5.20    3.90
   6 -19  -6    7.50    6.40
  -6 -19   6   17.90    4.70
  -6 -19   5    2.10    2.80
   6 -19  -5    6.90    5.70
  -6 -19   4   -1.50    2.20
  -6 -19   4   -0.60    2.80
   6 -19  -4   -2.70    4.00
   6 -19  -3    8.40    5.30
  -6 -19   3   13.80    4.30
   6  19  -2    6.10    2.90
   6 -19  -2    6.00    5.20
  -6 -19   2    5.70    3.90
   6  19  -1    0.30    2.20
  -6 -19   1    6.00    4.30
   6 -19  -1    6.10    4.70
   6  19   0    8.20    3.00
   6 -19   0   12.80    5.50
  -6 -19   0   13.60    5.30
  -6 -19  -1    3.00    3.90
   6 -19   1    2.60    4.30
  -6 -19  -2   -4.30    3.60
  -6 -19  -3    2.50    4.60
  -6 -19  -4   24.70    7.20
   6 -19   5   28.20    6.10
  -6 -19  -5   22.40    7.20
   6 -20  -6   25.80    8.40
  -6 -20   6   11.80    4.40
  -6 -20   5    7.80    3.80
   6 -20  -5    7.90    6.10
   6 -20  -4   -4.60    4.10
  -6 -20   4    0.50    2.50
   6  20  -3   19.20    4.40
  -6 -20   3   26.80    5.80
   6 -20  -3   19.20    6.50
   6  20  -2   52.19    6.20
  -6 -20   2   53.09    7.90
   6 -20  -2   63.79    9.50
   6  20  -1    0.00    2.50
   6 -20  -1    8.60    4.80
  -6 -20   1    4.80    3.90
  -6 -20   0    2.20    3.50
   6 -20   0   -4.00    3.40
   6 -20   1   -3.80    3.20
  -6 -20  -1   -2.50    3.60
  -6 -20  -2   14.00    5.80
  -6 -20  -3    6.30    5.30
  -6 -20  -4   -1.20    4.40
  -6 -20  -5   -4.30    4.30
   6 -21  -5    1.40    5.60
  -6 -21   5   -2.20    2.90
  -6 -21   4    5.90    3.40
   6 -21  -4    4.30    5.80
   6  21  -3   14.40    4.00
   6 -21  -3    9.00    6.40
  -6 -21   3   18.30    5.10
   6  21  -2   23.60    6.50
   6 -21  -2   17.40    6.30
  -6 -21   2   29.60    6.50
  -6 -21   1   10.20    5.00
   6 -21  -1   13.00    6.10
   6 -21   0   -4.00    3.40
  -6 -21   0    2.90    4.50
   6 -21   1    8.60    5.20
  -6 -21  -1   15.90    6.20
  -6 -21  -2    3.40    5.10
  -6 -21  -3   -2.10    3.70
   6 -22  -4   -4.20    6.00
   6 -22  -3   -3.00    5.00
  -6 -22   3    5.90    3.80
  -6 -22   2    1.90    4.10
   6 -22  -2    1.00    5.60
   6 -22  -1   28.20    7.50
  -6 -22   1   19.30    5.70
   6 -22   0   -1.70    4.70
  -6 -22   0    2.10    4.00
  -6 -22  -1    5.70    5.00
  -6 -22  -2    4.30    5.10
  -7   0  13   -3.80    3.20
  -7   0  12    9.90    4.20
  -7   0  11    3.40    2.90
   7   0 -10   28.30    5.80
  -7   0  10   29.60    4.70
   7   0  -9    3.90    2.60
  -7   0   9    2.30    2.30
   7   0  -8   32.20    4.70
  -7   0   8   39.90    4.90
  -7   0   7   -0.40    1.80
  -7   0   7    1.20    1.60
  -7   0   6    5.00    2.40
  -7   0   6    4.80    1.90
  -7   0   5    0.30    1.20
  -7   0   5   -0.60    1.40
  -7   0   4  221.28    8.90
  -7   0   4  229.08    7.80
  -7   0   3    0.60    1.10
   7   0  -3    1.50    1.10
  -7   0   2  357.76   11.60
   7   0  -2  363.06   10.30
  -7   0   1   -1.40    0.90
   7   0  -1   -2.30    0.60
  -7   0   0   -1.60    0.80
   7   0   0   -0.40    1.00
   7   0   1   -0.90    1.00
  -7   0  -1   -1.30    0.90
  -7   0  -2   21.70    3.20
   7   0   2   22.70    3.20
   7   0   3    0.90    1.60
  -7   0  -3    0.10    1.30
   7   0   4   46.80    5.20
  -7   0  -4   51.79    4.30
  -7   0  -5    0.50    1.40
   7   0   5   -2.00    1.90
   7   0   6    0.50    2.30
  -7   0  -6    0.60    1.50
   7   0   7    4.70    3.10
  -7   0  -7   -1.20    1.50
   7   0   8  192.68   11.60
   7   0   9    1.30    3.60
   7   0  10    3.00    3.80
   7   0  11   -7.20    2.70
  -7  -1  13   -3.10    2.90
  -7   1  12    9.10    3.90
  -7  -1  12    4.60    3.60
  -7   1  11    1.40    2.70
  -7  -1  11    1.20    2.80
  -7   1  10   32.50    5.00
  -7  -1  10   28.60    5.10
   7  -1 -10   36.80    5.30
   7   1  -9   -1.20    1.80
  -7   1   9    0.20    2.20
   7  -1  -9   -3.20    2.10
  -7  -1   9   -0.40    2.30
  -7   1   8    5.30    2.50
   7  -1  -8    0.70    2.50
  -7  -1   8    2.20    2.40
  -7   1   7    0.20    1.60
  -7   1   7   -0.70    1.90
  -7  -1   7    0.70    1.60
  -7  -1   7   -1.60    1.70
  -7   1   6   82.49    5.80
  -7   1   6   77.39    4.80
  -7  -1   6   81.69    5.60
  -7  -1   6   71.59    5.00
  -7   1   5   98.89    4.80
  -7   1   5   90.69    6.00
  -7  -1   5   85.59    5.00
  -7  -1   5   86.99    5.50
  -7   1   4    1.60    1.50
  -7  -1   4    2.10    1.50
  -7  -1   4    1.10    1.40
   7   1  -3  100.39    4.90
  -7   1   3  104.79    5.80
  -7  -1   3   90.79    5.30
   7  -1  -3   92.39    4.40
   7   1  -2   89.59    4.50
  -7   1   2   85.99    5.20
  -7  -1   2   77.89    4.90
   7  -1  -2   80.59    4.20
  -7   1   1  128.59    6.20
   7   1  -1  120.19    5.30
   7  -1  -1  120.09    5.20
  -7  -1   1  117.29    6.10
  -7   1   0   38.00    3.30
   7   1   0   36.80    3.10
  -7  -1   0   34.60    3.80
   7  -1   0   41.10    3.10
  -7   1  -1   43.70    3.60
   7   1   1   43.10    3.50
   7  -1   1   45.70    3.50
  -7  -1  -1   45.40    3.90
   7   1   2    2.40    1.60
  -7   1  -2    2.40    1.60
  -7  -1  -2    1.70    1.50
   7  -1   2    1.50    1.40
   7   1   3    0.00    1.30
  -7   1  -3    0.20    1.30
  -7  -1  -3   -0.90    1.40
   7  -1   3   -2.20    1.40
   7   1   4    0.70    1.70
  -7   1  -4    0.20    1.40
   7  -1   4    4.20    2.40
  -7  -1  -4    0.70    1.70
   7   1   5   32.40    4.70
  -7   1  -5   31.60    3.80
   7  -1   5   22.60    4.20
  -7  -1  -5   31.50    4.00
  -7   1  -6    7.50    2.20
   7   1   6   14.30    3.80
   7  -1   6   16.10    4.00
  -7  -1  -6   16.70    3.20
   7   1   7   32.50    5.40
   7  -1   7   25.70    5.30
  -7  -1  -7   22.40    3.70
   7   1   8    2.20    3.10
   7  -1   8    5.50    4.00
   7   1   9   34.40    6.40
   7  -1   9   38.10    6.80
   7   1  10   15.50    5.60
   7  -1  10   10.10    5.10
   7   1  11   41.40    7.70
   7  -1  11   33.40    7.60
  -7  -2  13    2.10    3.80
  -7   2  12    3.50    3.40
  -7  -2  12    5.10    3.60
  -7   2  11    2.00    2.70
  -7  -2  11   -1.30    2.60
  -7   2  10    1.70    2.40
  -7  -2  10    1.20    2.50
   7  -2 -10    0.40    2.60
  -7   2   9   13.80    3.20
   7   2  -9   14.30    3.20
   7  -2  -9   17.20    4.10
  -7  -2   9   14.30    3.70
  -7   2   8   34.30    4.10
   7  -2  -8   27.60    4.70
  -7  -2   8   31.50    4.60
  -7  -2   8   18.50    3.50
  -7   2   7    7.00    2.20
   7  -2  -7   10.70    3.40
  -7  -2   7    8.90    3.00
  -7  -2   7    8.60    2.50
  -7   2   6   40.80    3.40
  -7   2   6   42.60    5.00
  -7  -2   6   44.00    4.70
  -7  -2   6   45.20    4.60
  -7   2   5   35.20    4.40
  -7   2   5   39.60    3.10
  -7  -2   5   42.20    3.80
  -7  -2   5   33.50    3.60
  -7   2   4    0.20    1.40
  -7  -2   4    0.40    1.20
   7  -2  -4   -0.70    0.90
  -7  -2   4   -0.70    1.10
  -7   2   3   18.00    3.00
  -7  -2   3   21.60    3.00
   7  -2  -3   21.40    2.40
   7   2  -2 1318.07   27.90
  -7   2   2 1304.57   30.30
  -7  -2   2 1322.87   30.10
   7  -2  -2 1326.27   27.10
   7   2  -1   46.00    3.40
  -7   2   1   36.60    4.00
   7  -2  -1   44.00    3.10
  -7  -2   1   37.60    4.00
  -7   2   0  108.99    5.80
   7   2   0  126.89    5.70
   7  -2   0  125.89    5.40
  -7  -2   0  118.79    6.20
  -7   2  -1    5.40    1.70
   7   2   1    5.50    1.70
  -7  -2  -1    1.70    1.50
   7  -2   1    2.60    1.50
  -7   2  -2   22.90    3.10
   7   2   2   24.10    3.20
  -7  -2  -2   17.90    3.10
   7  -2   2   20.30    3.00
  -7   2  -3  239.08    8.80
   7   2   3  241.98    9.20
  -7  -2  -3  241.18    9.70
   7  -2   3  240.88    9.60
  -7   2  -4    1.20    1.30
   7   2   4    4.60    2.30
   7  -2   4    3.10    2.20
  -7  -2  -4    5.10    2.10
  -7   2  -5   23.10    3.20
   7   2   5   17.60    3.70
  -7  -2  -5   20.40    3.40
   7  -2   5   14.20    3.60
   7   2   6   26.10    4.50
  -7   2  -6   43.20    4.30
  -7  -2  -6   41.90    4.90
   7  -2   6   27.60    5.00
   7   2   7   -2.10    2.30
   7  -2   7   -4.00    2.50
  -7  -2  -7    1.30    1.80
   7   2   8   85.89    9.10
   7  -2   8   71.19    8.50
   7   2   9   13.50    4.40
   7  -2   9   10.40    4.90
   7   2  10    1.30    4.00
   7  -2  10   -1.90    3.80
   7   2  11    6.10    5.00
   7  -2  11   19.40    6.50
  -7  -3  13    8.60    4.10
  -7  -3  12    4.60    3.50
  -7   3  11    1.20    2.70
  -7  -3  11    4.30    3.60
  -7   3  10   33.80    4.80
  -7  -3  10   38.10    5.90
   7  -3 -10   56.99    7.10
  -7   3   9   33.00    4.30
   7   3  -9   29.40    4.40
  -7  -3   9   32.10    5.20
   7  -3  -9   25.80    5.00
  -7   3   8  135.19    6.70
  -7  -3   8  125.79    7.90
   7  -3  -8  116.69    8.00
  -7  -3   8  135.69    7.30
  -7   3   7  122.39    5.90
  -7  -3   7  111.79    6.40
   7  -3  -7  119.49    7.80
  -7  -3   7  136.39    7.70
  -7   3   6    0.20    1.90
  -7   3   6    0.50    1.30
  -7  -3   6   -0.80    1.10
  -7  -3   6   -1.90    1.30
  -7   3   5   -2.20    1.40
  -7   3   5   -0.30    1.00
  -7  -3   5   -0.70    1.30
  -7  -3   5    0.30    1.60
  -7   3   4   25.80    3.80
  -7  -3   4   24.40    3.20
  -7  -3   4   25.40    3.40
   7  -3  -4   23.40    2.50
  -7   3   3   68.69    5.00
   7  -3  -3   64.89    3.50
  -7  -3   3   84.79    5.10
  -7  -3   3   70.59    4.30
   7   3  -2    0.40    1.10
  -7   3   2    0.00    1.40
  -7  -3   2   -0.20    1.30
   7  -3  -2   -0.10    0.90
  -7   3   1   83.99    5.10
   7   3  -1   83.79    4.60
   7  -3  -1   77.89    4.00
  -7  -3   1   83.99    5.20
   7   3   0    7.00    1.80
  -7   3   0   12.20    2.40
   7  -3   0    8.50    1.90
  -7  -3   0   10.60    2.40
  -7   3  -1   56.29    4.10
   7   3   1   53.69    3.80
   7  -3   1   51.39    3.90
  -7  -3  -1   52.19    4.40
   7   3   2    0.80    1.30
  -7   3  -2   -0.60    1.10
   7  -3   2    2.30    1.70
  -7  -3  -2    1.40    1.40
  -7   3  -3    8.40    2.00
   7   3   3   15.20    2.80
   7  -3   3   14.50    3.00
  -7  -3  -3   10.90    2.60
   7   3   4   34.20    4.40
  -7   3  -4   35.40    3.70
   7  -3   4   18.80    3.70
  -7  -3  -4   30.20    4.30
   7   3   5   61.99    6.20
  -7   3  -5   67.99    4.40
  -7  -3  -5   64.19    5.30
   7  -3   5   68.59    6.10
   7   3   6  103.39    7.30
  -7   3  -6  108.19    5.50
   7  -3   6  130.49    8.70
  -7  -3  -6  109.79    6.90
   7   3   7    3.20    3.00
   7  -3   7   -1.60    2.50
  -7  -3  -7    0.30    1.90
   7   3   8    7.80    3.60
   7  -3   8   14.10    5.00
  -7  -3  -8    5.90    2.60
   7   3   9    3.90    4.00
   7  -3   9    3.50    4.10
   7   3  10   16.20    5.60
   7  -3  10   18.20    5.80
  -7  -4  13    4.90    3.70
  -7  -4  12   11.40    4.20
  -7  -4  11   43.60    6.70
   7  -4 -11   48.10    7.10
  -7   4  10   30.30    4.30
   7  -4 -10   36.50    6.20
  -7  -4  10   39.30    6.10
  -7   4   9    3.30    2.00
  -7  -4   9    4.10    3.00
   7  -4  -9    4.60    3.20
  -7   4   8   42.70    3.70
  -7  -4   8   37.70    5.20
  -7  -4   8   43.80    4.80
   7  -4  -8   46.10    6.10
  -7   4   7   24.40    3.00
   7  -4  -7   22.70    4.30
  -7  -4   7   25.90    3.70
  -7  -4   7   41.40    5.20
  -7   4   6    5.80    1.60
  -7  -4   6    1.70    2.00
  -7  -4   6    8.60    2.40
   7  -4  -6    6.70    2.60
  -7   4   5   15.90    3.40
  -7  -4   5   16.00    3.00
   7  -4  -5   20.50    2.30
  -7  -4   5   18.70    3.00
  -7   4   4   12.10    2.90
  -7  -4   4   16.10    2.90
  -7  -4   4   14.10    2.60
   7  -4  -4   15.50    2.00
  -7   4   3   -0.10    1.40
   7  -4  -3   -0.20    0.80
  -7  -4   3   -0.10    1.20
  -7  -4   3   -0.30    1.20
   7   4  -2    3.00    1.40
  -7   4   2    4.10    1.90
   7  -4  -2    1.40    1.00
  -7  -4   2    0.80    1.30
   7   4  -1    6.50    1.70
  -7   4   1    1.70    1.60
  -7  -4   1    3.00    1.80
   7  -4  -1    5.70    1.40
   7   4   0    2.20    1.30
  -7   4   0    0.40    1.30
  -7  -4   0    0.00    1.40
   7  -4   0    0.30    1.30
   7   4   1   10.00    2.20
  -7   4  -1   13.40    2.50
   7  -4   1    8.10    2.10
  -7  -4  -1    9.20    2.40
  -7   4  -2   13.10    2.50
   7   4   2   15.20    2.70
   7  -4   2   12.40    2.80
  -7  -4  -2   10.20    2.60
   7   4   3    5.00    2.20
  -7   4  -3    2.70    1.50
  -7  -4  -3    4.00    2.10
   7  -4   3    4.70    2.30
   7   4   4   14.00    2.90
  -7   4  -4    6.50    1.90
  -7  -4  -4    8.30    2.50
   7  -4   4    8.70    2.90
  -7   4  -5    3.30    1.60
   7   4   5    1.70    2.20
   7  -4   5    2.60    2.70
  -7  -4  -5    0.90    1.80
   7   4   6    3.10    2.40
  -7  -4  -6    4.50    2.60
   7  -4   6    5.60    3.40
   7   4   7   16.60    4.00
   7  -4   7   21.60    5.30
  -7  -4  -7   14.80    3.60
   7   4   8    2.90    3.00
  -7  -4  -8    2.40    2.40
   7  -4   8    0.70    3.80
   7   4   9    2.10    3.60
   7  -4   9    2.20    4.00
   7   4  10    6.90    4.10
   7  -4  10   -2.60    3.50
  -7  -5  12    9.80    4.30
  -7  -5  11   54.69    7.60
   7  -5 -11   53.89    7.60
   7  -5 -10   -0.30    2.70
  -7  -5  10    2.00    3.10
  -7   5   9   -1.00    1.60
  -7  -5   9    2.00    2.90
   7  -5  -9    1.20    2.80
  -7   5   8    2.80    1.80
  -7  -5   8    1.40    1.90
  -7  -5   8    3.90    2.80
   7  -5  -8    5.00    3.40
  -7   5   7  204.88    7.00
  -7  -5   7  183.68    8.10
  -7  -5   7  196.48    9.80
   7  -5  -7  185.88   10.40
   7  -5  -6  112.09    7.80
  -7  -5   6  117.09    6.20
  -7  -5   6  111.49    7.10
  -7   5   5   31.00    4.60
  -7  -5   5   25.90    3.40
   7  -5  -5   33.70    2.40
  -7  -5   5   29.30    3.90
  -7   5   4  147.09    8.00
  -7  -5   4  152.18    7.10
   7  -5  -4  156.68    5.30
  -7  -5   4  157.08    7.30
  -7   5   3    2.10    1.70
   7  -5  -3   -0.20    0.80
  -7  -5   3    2.70    1.50
  -7  -5   3    1.70    1.60
  -7   5   2  231.18    9.80
   7   5  -2  261.47    9.10
   7  -5  -2  253.67    7.40
  -7  -5   2  266.17   10.00
   7   5  -1  575.44   15.40
  -7   5   1  592.24   17.00
   7  -5  -1  575.14   13.90
  -7  -5   1  612.54   17.30
  -7   5   0    1.80    1.50
   7   5   0   -0.60    1.00
  -7  -5   0    0.40    1.50
   7  -5   0    0.80    1.30
   7   5   1  130.29    6.20
  -7   5  -1  122.39    6.30
  -7  -5  -1  125.69    7.00
   7  -5   1  134.39    6.20
  -7   5  -2   52.79    4.10
   7   5   2   51.69    4.10
   7  -5   2   59.89    4.80
  -7  -5  -2   64.09    5.20
  -7   5  -3   92.29    5.10
   7   5   3   87.99    5.40
  -7  -5  -3   90.79    6.30
   7  -5   3   95.29    6.30
   7   5   4   45.00    4.90
  -7   5  -4   32.60    3.50
   7  -5   4   29.90    4.60
  -7  -5  -4   28.20    4.20
  -7   5  -5   38.60    3.20
   7   5   5   39.00    4.90
   7  -5   5   33.80    5.20
  -7  -5  -5   34.10    4.80
   7   5   6   16.80    4.00
  -7  -5  -6   13.80    3.30
   7  -5   6   10.90    3.80
   7   5   7    7.20    3.40
  -7  -5  -7    0.70    2.20
   7  -5   7   -2.00    2.60
   7   5   8    4.00    2.90
   7  -5   8    5.50    4.10
  -7  -5  -8    7.20    3.00
   7   5   9   -2.50    3.10
   7  -5   9    3.30    4.00
   7   5  10    5.70    4.40
   7  -5  10    7.20    5.10
  -7  -6  12    1.30    3.60
  -7  -6  11    2.80    3.30
   7  -6 -11   -2.50    3.60
   7  -6 -10   11.50    4.40
  -7  -6  10    2.30    3.00
   7  -6  -9   13.40    4.80
  -7  -6   9    9.30    3.80
  -7   6   8   33.30    3.30
  -7  -6   8   32.60    4.00
   7  -6  -8   37.80    6.00
  -7  -6   8   38.30    5.60
  -7   6   7   10.00    1.90
   7  -6  -7    4.00    3.20
  -7  -6   7    4.10    2.10
  -7  -6   7    6.20    2.90
  -7  -6   6  124.89    7.70
   7  -6  -6  112.99    8.10
   7  -6  -6  117.99    4.60
  -7  -6   6  118.89    6.30
   7  -6  -5  172.98    5.50
  -7  -6   5  180.68    8.50
   7  -6  -5  186.18    9.80
  -7  -6   5  176.98    7.80
  -7   6   4    4.00    2.10
   7  -6  -4    1.80    0.90
  -7  -6   4   -0.30    1.30
  -7  -6   4    0.40    1.60
  -7   6   3   76.59    5.70
   7  -6  -3   78.49    3.40
  -7  -6   3   71.69    5.20
  -7  -6   3   78.59    5.00
   7   6  -2    2.00    1.60
  -7   6   2    0.90    1.60
   7  -6  -2    1.80    1.20
  -7  -6   2    3.60    1.90
   7   6  -1    4.00    1.60
  -7   6   1    3.70    1.80
   7  -6  -1    3.60    1.40
  -7  -6   1    2.10    1.70
  -7   6   0  239.28    9.60
   7   6   0  242.08    8.90
   7  -6   0  235.58    8.10
  -7  -6   0  251.17   10.30
  -7   6  -1  191.18    8.10
   7   6   1  208.48    8.10
  -7  -6  -1  194.68    9.20
   7  -6   1  193.78    7.80
  -7   6  -2    4.30    1.90
   7   6   2    3.90    1.80
  -7  -6  -2    4.60    2.30
   7  -6   2    4.30    2.30
   7   6   3  124.09    6.40
  -7   6  -3  120.69    6.00
   7  -6   3  118.59    7.30
  -7  -6  -3  137.99    8.00
  -7   6  -4    5.70    1.80
   7   6   4    6.30    2.40
   7  -6   4    9.00    3.10
  -7  -6  -4    3.30    2.50
  -7   6  -5   33.20    3.00
   7   6   5   36.40    4.80
  -7  -6  -5   23.80    4.30
   7  -6   5   34.20    5.50
   7   6   6   13.60    3.40
  -7  -6  -6   14.50    3.80
   7  -6   6   16.60    4.30
   7   6   7    1.70    2.80
   7  -6   7   -0.50    3.60
  -7  -6  -7    0.70    2.50
   7   6   8   -2.50    2.20
  -7  -6  -8   -0.90    1.90
   7  -6   8    1.80    3.60
   7   6   9    0.00    2.90
   7  -6   9   -3.60    3.20
   7   6  10    0.30    3.60
   7  -6  10   -0.70    3.60
  -7  -7  12    3.70    4.30
   7  -7 -11    1.80    3.70
  -7  -7  11   -2.40    2.80
  -7  -7  10   12.10    4.40
   7  -7 -10   12.00    4.60
  -7  -7   9   29.10    5.40
   7  -7  -9   24.10    5.60
  -7  -7   8   38.40    5.70
   7  -7  -8   43.00    6.50
   7  -7  -7  125.79    9.10
  -7  -7   7  132.69    8.50
  -7  -7   7  132.99    6.70
   7  -7  -6   48.70    6.50
  -7  -7   6   65.29    5.70
   7  -7  -6   52.79    2.80
  -7  -7   6   51.19    4.30
  -7  -7   5    7.70    2.50
  -7  -7   5    7.50    2.60
   7  -7  -5    7.00    1.30
   7  -7  -5    5.30    3.00
   7  -7  -4  151.18    9.00
   7  -7  -4  165.78    5.00
  -7  -7   4  170.68    7.90
  -7  -7   4  172.28    8.00
  -7   7   3   86.29    6.50
  -7  -7   3   87.69    5.70
  -7  -7   3   93.49    5.60
   7  -7  -3   85.89    3.50
   7   7  -2  182.98    7.80
  -7   7   2  187.08    9.10
  -7  -7   2  188.58    8.60
   7  -7  -2  183.28    5.90
   7   7  -1   22.20    3.10
  -7   7   1   28.80    4.10
   7  -7  -1   35.50    2.90
  -7  -7   1   34.70    4.30
   7   7   0  173.58    7.40
  -7   7   0  154.38    7.70
   7  -7   0  169.88    6.70
  -7  -7   0  170.68    8.60
  -7   7  -1   26.60    3.70
   7   7   1   25.30    3.30
  -7  -7  -1   22.30    3.70
   7  -7   1   27.40    3.60
  -7   7  -2   -2.10    1.00
   7   7   2   -2.30    1.00
  -7  -7  -2   -0.80    1.80
   7  -7   2    0.40    1.80
   7   7   3   20.50    3.30
  -7   7  -3   23.10    3.20
  -7  -7  -3   16.00    3.80
   7  -7   3   21.40    3.80
  -7   7  -4   17.20    2.80
   7   7   4   21.80    3.50
  -7  -7  -4   17.40    4.20
   7  -7   4   23.50    4.50
   7   7   5    1.30    2.30
   7  -7   5    1.40    2.60
  -7  -7  -5    4.30    2.60
   7   7   6   13.60    3.50
  -7  -7  -6   15.80    4.30
   7  -7   6   15.70    4.50
   7   7   7    7.80    3.60
  -7  -7  -7    9.20    3.40
   7  -7   7    3.20    3.50
   7   7   8    0.70    2.60
  -7  -7  -8   -1.80    2.30
   7  -7   8    0.40    3.30
   7   7   9   -2.60    3.10
   7  -7   9   -2.30    3.30
  -7  -7  -9   -0.40    2.60
   7   7  10   -0.40    3.60
   7  -7  10    7.90    4.80
   7  -8 -12   -6.20    4.20
  -7  -8  12    7.80    4.60
  -7  -8  11    0.60    3.30
   7  -8 -11    6.40    4.80
  -7  -8  10   42.10    6.60
   7  -8 -10   42.00    7.60
   7  -8  -9    4.90    3.80
  -7  -8   9   -0.90    2.90
   7  -8  -8   33.80    6.20
  -7  -8   8   33.30    5.60
  -7  -8   7    7.50    2.20
   7  -8  -7    0.10    3.00
  -7  -8   7   -0.20    2.50
   7  -8  -6  107.09    8.40
  -7  -8   6  114.09    7.50
  -7  -8   6  106.99    6.10
  -7  -8   5  177.28    8.80
   7  -8  -5  175.58    4.70
  -7  -8   5  172.28    8.00
   7  -8  -5  178.28   10.40
  -7  -8   4   35.70    4.30
  -7  -8   4   31.40    4.10
   7  -8  -4   46.70    6.00
   7  -8  -4   39.70    2.20
  -7  -8   3  225.58    9.10
   7  -8  -3  216.58    6.10
   7  -8  -3  224.48   10.80
  -7  -8   3  204.48    9.20
   7   8  -2   65.09    4.90
   7  -8  -2   59.29    3.30
  -7  -8   2   55.59    4.90
  -7   8   1    2.70    1.80
   7   8  -1    0.90    1.30
  -7  -8   1    1.20    1.70
   7  -8  -1   -0.30    1.20
   7   8   0   73.29    4.90
  -7   8   0   81.19    5.70
  -7  -8   0   74.49    5.70
   7  -8   0   75.09    4.60
  -7   8  -1    5.80    2.20
   7   8   1    6.40    2.20
  -7  -8  -1    5.80    2.70
   7  -8   1    8.50    2.50
  -7   8  -2  192.98    8.40
   7   8   2  205.98    8.40
   7  -8   2  201.78    8.90
  -7  -8  -2  197.58   10.10
  -7   8  -3    1.50    1.60
   7   8   3    0.40    1.40
  -7  -8  -3   -1.60    2.20
   7  -8   3   -1.90    2.40
   7   8   4   14.20    3.00
  -7   8  -4   13.50    2.50
  -7  -8  -4   18.70    4.40
   7  -8   4   19.70    4.20
   7   8   5   -0.90    1.90
  -7  -8  -5    3.70    3.30
   7  -8   5   -4.90    2.00
   7   8   6    4.60    2.80
  -7  -8  -6    3.40    2.70
   7  -8   6    7.20    3.90
   7   8   7   22.00    4.50
  -7  -8  -7   23.80    5.20
   7  -8   7   20.50    5.30
   7   8   8    1.90    3.10
  -7  -8  -8    2.50    2.80
   7  -8   8   -4.60    3.00
   7   8   9   11.70    4.50
   7  -8   9    7.30    4.50
  -7  -8  -9    4.50    3.20
   7   8  10    6.70    4.30
   7  -8  10    2.00    4.30
  -7  -9  12   12.90    5.10
   7  -9 -12   12.90    5.70
   7  -9 -11   -0.30    3.90
  -7  -9  11   -2.00    3.80
  -7  -9  10   -0.40    3.00
   7  -9 -10    2.10    4.50
   7  -9  -9    3.40    3.70
  -7  -9   9    6.30    3.80
   7  -9  -8   13.20    4.50
  -7  -9   8   11.30    4.00
   7  -9  -7   28.10    5.90
  -7  -9   7   31.40    4.00
  -7  -9   7   33.00    5.60
  -7  -9   6    8.30    2.60
  -7  -9   6   14.90    3.80
   7  -9  -6    3.40    3.40
   7  -9  -5   12.10    4.20
  -7  -9   5   16.40    3.50
  -7  -9   5   14.50    3.00
  -7  -9   4  118.49    7.00
   7  -9  -4  118.49    3.90
  -7  -9   4  113.99    6.80
   7  -9  -4  102.49    8.00
   7  -9  -3   92.79    3.60
  -7  -9   3   98.39    6.10
   7  -9  -3   87.19    6.80
  -7  -9   3   94.39    6.40
   7   9  -2   22.20    3.40
   7  -9  -2   22.70    2.50
  -7  -9   2   18.10    3.50
   7  -9  -2   11.00    3.10
   7   9  -1   10.70    2.40
   7  -9  -1    9.30    2.80
  -7  -9   1    9.30    2.70
   7  -9  -1   10.30    2.00
   7   9   0   13.20    2.70
   7  -9   0   16.40    3.50
  -7  -9   0   18.10    3.80
   7  -9   0   17.40    2.80
   7   9   1   10.30    2.40
  -7  -9  -1   16.20    3.80
   7  -9   1   13.20    2.80
   7   9   2  233.08    9.10
  -7  -9  -2  220.78   11.20
   7  -9   2  236.48   10.10
   7   9   3   11.00    2.50
  -7  -9  -3   10.80    3.60
   7  -9   3    7.80    3.00
   7   9   4   44.80    4.80
   7  -9   4   46.70    4.20
   7  -9   4   37.50    5.50
  -7  -9  -4   47.10    6.30
   7   9   5   -0.10    2.00
  -7  -9  -5    0.80    3.00
   7  -9   5   -2.20    2.20
   7   9   6    7.00    2.80
  -7  -9  -6    2.50    3.00
   7  -9   6    3.20    3.30
   7   9   7   -2.10    2.30
  -7  -9  -7   -0.10    2.70
   7  -9   7   -3.20    3.20
   7   9   8    7.60    3.70
  -7  -9  -8    8.60    4.40
   7  -9   8   11.60    5.00
   7   9   9    2.00    3.60
   7  -9   9    3.80    4.50
  -7  -9  -9    0.50    3.30
   7  -9  10    4.60    4.80
   7 -10 -12   18.10    6.50
  -7 -10  12    2.70    4.40
  -7 -10  11   22.60    6.20
   7 -10 -11   23.30    7.20
  -7 -10  10    1.60    3.80
   7 -10 -10   -3.50    4.00
  -7 -10   9   20.70    5.20
   7 -10  -9   14.00    5.80
  -7 -10   8   41.90    6.40
   7 -10  -8   37.80    6.90
  -7 -10   7   24.60    3.80
  -7 -10   7   17.80    4.40
   7 -10  -7   10.20    4.40
  -7 -10   6    9.60    2.60
   7 -10  -6   13.20    4.60
  -7 -10   6    1.50    2.50
  -7 -10   5    0.90    1.70
  -7 -10   5   -0.90    2.20
   7 -10  -5    1.30    2.40
  -7 -10   4   67.89    5.40
  -7 -10   4   72.99    5.70
   7 -10  -4   57.19    7.20
   7 -10  -3  212.78    5.80
   7 -10  -3  212.38   11.30
  -7 -10   3  201.98    9.60
  -7 -10   3  234.98    9.70
   7  10  -2   32.30    4.10
   7 -10  -2   33.80    3.00
  -7 -10   2   22.20    4.00
   7 -10  -2   39.80    5.50
   7  10  -1   21.80    3.30
   7 -10  -1   17.60    3.90
  -7 -10   1   27.50    4.50
   7 -10  -1   17.90    2.70
   7  10   0    9.70    2.60
   7 -10   0    9.00    3.00
  -7 -10   0   10.90    3.30
   7 -10   0   11.10    2.60
   7  10   1   37.10    4.20
  -7 -10  -1   36.50    5.40
   7 -10   1   43.00    4.70
   7 -10   1   49.80    5.60
   7  10   2   10.60    2.50
   7 -10   2   16.30    3.30
  -7 -10  -2   17.20    4.20
   7 -10   2   19.40    3.80
   7  10   3   29.60    3.90
   7 -10   3   33.90    4.30
   7 -10   3   36.90    5.40
  -7 -10  -3   41.40    6.20
   7  10   4   20.50    3.40
  -7 -10  -4   24.60    5.20
   7 -10   4   21.30    4.60
   7 -10   4   26.10    3.70
   7  10   5   62.89    5.40
   7 -10   5   58.59    7.30
  -7 -10  -5   41.80    6.70
   7  10   6    6.40    2.80
   7 -10   6   -0.40    2.90
  -7 -10  -6   -1.20    2.50
   7  10   7    0.70    2.70
  -7 -10  -7    3.10    3.20
   7 -10   7    2.90    3.60
   7  10   8    6.30    3.50
   7 -10   8   -2.30    3.60
  -7 -10  -8    0.10    2.80
  -7 -10  -9    2.90    3.70
   7 -10   9   -3.20    3.40
   7 -11 -11    4.10    4.90
  -7 -11  11    0.40    3.90
  -7 -11  10   -3.30    3.20
   7 -11 -10    0.10    4.20
  -7 -11   9   -2.70    3.20
   7 -11  -9   -4.60    3.30
   7 -11  -8    1.90    3.50
  -7 -11   8   12.50    4.20
   7 -11  -7    7.10    4.10
  -7 -11   7    8.00    3.60
  -7 -11   6   15.50    3.10
  -7 -11   6   13.10    3.90
   7 -11  -6   12.10    4.50
   7 -11  -5    6.20    3.80
  -7 -11   5    0.50    1.70
  -7 -11   5   -2.90    1.90
   7 -11  -4    5.70    3.50
  -7 -11   4    2.30    2.20
  -7 -11   4    2.50    1.90
   7 -11  -3   -0.20    2.60
  -7 -11   3    2.00    2.00
  -7 -11   3    0.70    1.80
   7  11  -2    5.80    2.40
   7 -11  -2    7.80    1.80
  -7 -11   2    9.10    2.90
   7 -11  -2    4.90    3.30
   7  11  -1    1.20    1.70
  -7 -11   1   -1.70    1.20
   7 -11  -1   -0.30    1.50
   7 -11  -1   -1.10    2.30
   7  11   0    3.20    1.90
   7 -11   0   -2.00    2.20
   7 -11   0    0.70    1.70
  -7 -11   0    0.40    1.60
   7  11   1    0.80    1.60
  -7 -11  -1    1.50    2.70
   7 -11   1   -1.20    2.00
   7 -11   1    2.10    2.50
   7  11   2   59.79    4.80
  -7 -11  -2   56.99    7.10
   7 -11   2   51.49    5.70
   7 -11   2   56.99    5.90
   7  11   3   -1.40    1.40
   7 -11   3    2.50    2.30
  -7 -11  -3    2.90    2.60
   7 -11   3    1.20    2.40
   7  11   4   37.30    4.50
   7 -11   4   20.20    4.50
  -7 -11  -4   29.60    5.60
   7  11   5    4.60    2.50
  -7 -11  -5    3.30    3.40
   7 -11   5    1.10    2.80
   7  11   6    4.30    2.60
   7 -11   6    5.20    4.00
  -7 -11  -6   14.10    4.70
   7  11   7    9.80    3.70
  -7 -11  -7   15.50    5.00
   7 -11   7   -1.00    3.30
   7  11   8    8.20    5.90
  -7 -11  -8    7.30    4.30
   7 -11   8   13.00    5.10
   7 -11   9   84.39   11.00
  -7 -11  -9   76.19    9.80
  -7 -12  11   10.30    5.20
   7 -12 -11    7.60    5.60
  -7 -12  10   13.30    5.00
   7 -12 -10    8.90    5.50
   7 -12  -9   -1.90    3.70
  -7 -12   9   -4.90    3.10
   7 -12  -8    3.70    4.00
  -7 -12   8   -3.30    2.40
  -7 -12   7    4.30    3.30
   7 -12  -7    4.10    4.20
  -7 -12   6    0.10    1.70
  -7 -12   6    2.90    2.50
   7 -12  -6   -3.60    1.90
  -7 -12   5   76.39    6.50
  -7 -12   5   70.09    5.70
   7 -12  -5   82.69    9.30
   7 -12  -4   12.70    4.40
  -7 -12   4   21.60    3.80
  -7 -12   4   12.50    3.30
  -7 -12   3   61.59    5.30
  -7 -12   3   63.59    5.80
   7 -12  -3   58.39    7.30
   7  12  -2  103.59    6.60
  -7 -12   2  116.59    7.90
   7 -12  -2  123.29    8.70
   7  12  -1  117.99    6.60
   7 -12  -1  109.99    5.50
  -7 -12   1  113.19    8.10
   7 -12  -1  109.09    8.10
   7  12   0   71.79    5.30
   7 -12   0   74.39    6.50
   7 -12   0   81.19    5.30
  -7 -12   0   72.89    7.70
   7  12   1    6.50    2.20
  -7 -12  -1   10.00    3.50
   7 -12   1    9.00    2.90
   7 -12   1    5.60    3.00
   7  12   2  144.79    7.40
   7 -12   2  131.29    8.00
   7 -12   2  160.28    8.70
  -7 -12  -2  142.39   10.00
   7  12   3   -0.20    1.60
  -7 -12  -3    6.70    3.60
   7 -12   3    0.30    2.70
   7 -12   3    5.50    2.70
   7  12   4   59.59    5.00
  -7 -12  -4   66.89    8.40
   7 -12   4   70.39    7.60
   7  12   5   54.79    5.90
  -7 -12  -5   56.19    8.00
   7 -12   5   53.09    7.30
   7  12   6    1.20    2.40
  -7 -12  -6   -2.90    2.60
   7 -12   6   -1.80    3.30
   7  12   7    6.20    3.40
   7 -12   7   -0.80    3.20
  -7 -12  -7    3.40    3.60
  -7 -12  -8    5.80    4.20
   7 -12   8   18.40    5.80
  -7 -12  -9   -3.10    4.00
   7 -12   9    6.90    5.50
  -7 -13  11   54.29    8.70
   7 -13 -11   40.50    9.40
   7 -13 -10    1.90    5.40
  -7 -13  10   -0.70    3.20
   7 -13  -9   14.20    5.90
  -7 -13   9   18.60    5.20
  -7 -13   8    7.20    3.90
   7 -13  -8    8.30    5.00
  -7 -13   7   21.50    4.80
   7 -13  -7   30.20    6.90
   7 -13  -6    2.70    3.60
  -7 -13   6    2.40    2.20
  -7 -13   6    1.60    2.60
  -7 -13   5   83.19    6.40
  -7 -13   5   81.39    6.80
   7 -13  -5   91.49    9.80
   7 -13  -4   25.60    5.80
  -7 -13   4   20.20    3.80
  -7 -13   4   18.70    3.80
   7 -13  -3  108.49    9.00
  -7 -13   3  109.59    7.20
  -7 -13   3  106.29    7.80
   7  13  -2   -1.90    1.70
   7 -13  -2   -0.90    2.70
  -7 -13   2    2.30    2.60
   7  13  -1   31.50    4.30
   7 -13  -1   46.50    4.40
  -7 -13   1   43.50    5.90
   7 -13  -1   48.20    6.60
   7  13   0    8.20    2.70
   7 -13   0    5.30    2.40
  -7 -13   0    5.90    3.30
   7 -13   0    8.00    3.60
   7  13   1  152.18    7.80
   7 -13   1  156.38    8.20
   7 -13   1  161.58    9.30
  -7 -13  -1  168.88   10.80
   7  13   2   15.50    3.20
   7 -13   2   18.80    3.80
  -7 -13  -2   12.20    4.40
   7 -13   2   18.90    4.20
   7  13   3   -0.30    1.60
   7 -13   3    1.30    2.30
  -7 -13  -3    1.30    3.30
   7 -13   3    1.90    2.80
   7  13   4   -1.00    1.70
   7 -13   4   -0.80    2.80
  -7 -13  -4    1.50    3.20
   7  13   5   31.30    4.50
  -7 -13  -5   22.40    5.70
   7 -13   5   28.90    5.70
   7  13   6    0.60    2.50
  -7 -13  -6    0.70    3.10
   7 -13   6    1.50    3.00
  -7 -13  -7    7.40    4.60
   7 -13   7    9.80    4.70
  -7 -13  -8   14.30    5.50
   7 -13   8    5.50    5.00
   7 -14 -10    3.60    5.60
  -7 -14  10    1.80    3.50
  -7 -14   9    4.80    3.90
   7 -14  -9    2.60    5.30
  -7 -14   8    2.70    3.30
   7 -14  -8    8.30    5.00
   7 -14  -7    3.30    4.40
  -7 -14   7    5.40    3.20
   7 -14  -6   26.30    6.50
  -7 -14   6   38.10    8.10
  -7 -14   6   32.20    5.40
   7 -14  -5    3.90    3.90
  -7 -14   5    1.20    2.10
  -7 -14   5   -0.30    2.10
  -7 -14   4   35.60    5.10
   7 -14  -4   29.70    6.00
  -7 -14   4   32.90    4.90
  -7 -14   3   -1.90    1.90
  -7 -14   3   -1.60    1.70
   7 -14  -3    2.00    3.60
   7  14  -2   14.90    3.20
   7 -14  -2   20.40    5.10
  -7 -14   2   21.20    4.60
   7  14  -1   19.70    3.50
   7 -14  -1   17.00    4.70
  -7 -14   1   16.70    4.20
   7  14   0   22.60    3.80
   7 -14   0   31.00    5.40
   7 -14   0   26.20    3.80
  -7 -14   0   23.10    5.20
   7  14   1   10.70    2.90
   7 -14   1   16.70    4.20
   7 -14   1    9.60    3.30
  -7 -14  -1   17.70    4.90
   7  14   2    2.70    2.20
  -7 -14  -2   -2.00    2.70
   7 -14   2   -3.20    2.10
   7 -14   2   -1.80    2.00
   7  14   3    3.30    2.30
   7 -14   3    0.70    2.80
   7 -14   3    5.60    2.90
  -7 -14  -3    4.30    3.70
   7  14   4   17.60    3.50
   7 -14   4    9.00    3.90
  -7 -14  -4   10.10    4.50
   7  14   5    0.00    2.10
  -7 -14  -5    3.20    3.90
   7 -14   5    3.10    3.60
   7 -14   6   13.90    5.10
  -7 -14  -6   23.10    6.10
  -7 -14  -7   -2.90    3.30
   7 -14   7   -2.20    3.30
  -7 -14  -8   12.00    5.40
   7 -14   8    5.10    4.90
  -7 -15  10    7.40    4.70
   7 -15 -10    3.90    6.00
   7 -15  -9   -3.60    4.30
  -7 -15   9    3.00    3.70
  -7 -15   8   20.10    5.20
   7 -15  -8   23.40    7.20
   7 -15  -7   15.00    6.20
  -7 -15   7   26.40    5.40
   7 -15  -6   21.10    6.20
  -7 -15   6   24.40    5.10
  -7 -15   5   28.40    4.70
   7 -15  -5   25.30    6.40
  -7 -15   5   21.70    4.60
   7 -15  -4   37.00    7.10
  -7 -15   4   37.50    5.40
  -7 -15   4   49.80    6.00
  -7 -15   3    5.90    2.60
   7 -15  -3   12.30    4.60
  -7 -15   3    4.60    3.00
   7  15  -2   45.00    5.40
   7 -15  -2   54.39    7.60
  -7 -15   2   43.40    6.30
   7  15  -1    1.00    2.20
  -7 -15   1   -0.10    2.50
   7 -15  -1   -2.20    2.70
   7  15   0    5.30    2.60
   7 -15   0    5.70    3.50
  -7 -15   0    2.50    3.20
   7  15   1   14.80    3.30
   7 -15   1   17.90    3.80
  -7 -15  -1   15.90    4.90
   7 -15   1   22.30    5.00
   7  15   2    1.10    1.90
   7 -15   2    0.60    2.30
  -7 -15  -2    3.60    3.60
   7 -15   2    1.00    2.70
   7  15   3    0.40    1.90
  -7 -15  -3   -1.30    3.20
   7 -15   3   -1.50    2.50
   7  15   4   36.10    4.70
   7 -15   4   40.60    6.70
  -7 -15  -4   33.50    6.80
   7 -15   5   40.80    7.00
  -7 -15  -5   44.90    8.00
  -7 -15  -6   -3.00    3.40
   7 -15   6    3.70    4.00
   7 -15   7   20.90    6.20
  -7 -15  -7   42.40    8.20
  -7 -16   9    0.30    3.20
   7 -16  -9    1.20    5.40
   7 -16  -8    7.20    5.50
  -7 -16   8    8.60    4.10
   7 -16  -7    5.70    5.50
  -7 -16   7    3.70    3.20
  -7 -16   6   10.50    3.80
   7 -16  -6   16.10    5.80
   7 -16  -5   13.20    5.50
  -7 -16   5   14.60    3.90
  -7 -16   5    9.10    3.20
  -7 -16   4    4.30    2.80
   7 -16  -4    7.00    4.80
  -7 -16   4   18.60    4.30
  -7 -16   3   15.70    3.60
  -7 -16   3   11.80    3.80
   7 -16  -3   17.40    5.40
   7  16  -2    8.40    3.00
   7 -16  -2    3.70    4.00
  -7 -16   2    6.80    3.70
   7  16  -1   18.30    3.90
   7 -16  -1   16.90    4.80
  -7 -16   1   19.40    5.20
   7  16   0    2.60    2.30
   7 -16   0    4.30    3.80
  -7 -16   0   -2.90    2.50
   7  16   1    7.60    2.60
  -7 -16  -1    5.90    4.00
   7 -16   1   14.50    4.50
   7  16   2   -2.00    1.60
   7 -16   2    1.60    2.70
   7 -16   2   -2.50    2.60
  -7 -16  -2    2.70    3.60
   7  16   3   42.90    5.10
   7 -16   3   42.90    6.10
  -7 -16  -3   56.89    8.80
   7 -16   4   26.50    5.70
  -7 -16  -4   21.20    6.30
   7 -16   5   20.30    5.30
  -7 -16  -5   16.20    5.70
   7 -16   6   -1.70    3.20
  -7 -16  -6   -2.40    3.90
   7 -16   7   25.80    7.20
  -7 -16  -7   18.80    6.70
  -7 -17   9    3.50    4.30
   7 -17  -9    8.90    6.40
   7 -17  -8    9.40    6.30
  -7 -17   8    2.20    3.80
   7 -17  -7   15.80    6.50
  -7 -17   7    6.30    3.80
   7 -17  -6   11.70    6.00
  -7 -17   6    3.50    3.10
   7 -17  -5   28.00    6.80
  -7 -17   5   45.80    6.30
  -7 -17   5   43.90    6.30
  -7 -17   4   20.40    4.40
   7 -17  -4    8.80    5.40
  -7 -17   4   18.80    4.60
  -7 -17   3   56.49    7.30
   7 -17  -3   54.59    8.40
   7  17  -2   13.10    3.50
   7 -17  -2   14.50    5.50
  -7 -17   2    1.30    2.80
   7  17  -1    0.90    2.10
   7 -17  -1   12.30    4.90
  -7 -17   1    2.20    3.10
   7  17   0    9.70    3.10
   7 -17   0    9.50    4.80
  -7 -17   0   11.20    4.50
   7  17   1   -0.70    1.80
   7 -17   1    0.40    2.80
  -7 -17  -1   -3.00    3.20
   7  17   2    4.50    2.50
  -7 -17  -2    4.90    4.40
   7 -17   2    7.20    3.90
   7 -17   3   38.00    5.90
  -7 -17  -3   33.90    7.20
   7 -17   4   -2.40    2.90
  -7 -17  -4    1.70    4.20
  -7 -17  -5    6.60    4.90
   7 -17   5    8.90    4.10
   7 -17   6    7.90    4.50
  -7 -17  -6    2.80    4.60
  -7 -18   8   -3.60    2.90
   7 -18  -8    6.00    6.20
   7 -18  -7   -2.10    5.30
  -7 -18   7    0.70    3.50
  -7 -18   6   28.20    5.60
   7 -18  -6   25.00    7.40
   7 -18  -5    4.20    5.10
  -7 -18   5   -1.60    2.60
  -7 -18   4    9.20    3.90
  -7 -18   4   12.90    4.10
   7 -18  -4   11.90    5.60
   7  18  -3    2.50    2.80
  -7 -18   3   -1.70    2.40
   7 -18  -3    4.30    4.60
   7  18  -2    2.40    2.60
  -7 -18   2    1.20    2.90
   7 -18  -2   -2.30    3.40
   7  18  -1   21.20    4.20
  -7 -18   1   28.40    6.20
   7 -18  -1   23.10    5.90
   7  18   0   21.60    4.30
  -7 -18   0   14.00    5.20
   7 -18   0   16.90    5.20
   7  18   1    3.70    2.40
  -7 -18  -1   -0.90    3.40
   7 -18   1    2.20    3.30
   7 -18   2    9.40    6.80
  -7 -18  -2   10.80    5.00
  -7 -18  -3   -2.90    3.80
   7 -18   4   16.50    5.00
  -7 -18  -4   13.60    5.30
   7 -18   5    0.70    3.30
  -7 -18  -5   -1.50    4.10
  -7 -18  -6   -3.40    4.10
   7 -18   6   -3.60    3.20
  -7 -19   7   -2.20    3.10
   7 -19  -7    1.50    5.20
   7 -19  -6    0.30    5.40
  -7 -19   6    0.10    3.30
   7 -19  -5   -1.80    4.70
  -7 -19   5    6.20    3.70
  -7 -19   4    1.10    3.00
  -7 -19   4    2.10    2.90
   7 -19  -4    4.30    4.80
   7  19  -3    6.00    2.80
  -7 -19   3    4.80    3.40
   7 -19  -3    7.90    5.30
   7  19  -2    2.50    2.60
  -7 -19   2    0.40    3.20
   7 -19  -2    1.20    4.10
   7  19  -1    1.90    2.30
  -7 -19   1   -2.70    2.40
   7 -19  -1    1.60    4.50
   7  19   0   43.50    5.60
   7 -19   0   18.70    5.40
  -7 -19   0   33.30    6.70
  -7 -19  -1   18.50    6.20
   7 -19   1   28.20    6.30
  -7 -19  -2   -0.60    3.80
  -7 -19  -3    0.40    4.40
  -7 -19  -4   -6.80    3.50
   7 -19   5    6.00    4.20
  -7 -19  -5    2.10    4.80
   7 -20  -6    7.40    6.00
  -7 -20   6   12.60    4.70
  -7 -20   5    0.60    3.10
   7 -20  -5   -4.90    5.00
  -7 -20   4   25.10    5.80
   7 -20  -4   33.60    8.30
   7  20  -3    3.30    3.00
  -7 -20   3   -2.90    3.10
   7 -20  -3    1.40    4.50
   7  20  -2    6.70    3.00
   7 -20  -2    7.60    5.70
  -7 -20   2    3.20    3.50
   7  20  -1    1.90    2.70
   7 -20  -1    7.80    4.80
  -7 -20   1   -0.60    3.10
  -7 -20   0   37.60    7.60
   7 -20   0   42.90    8.00
   7 -20   1    9.90    5.10
  -7 -20  -1    7.30    5.10
  -7 -20  -2   -1.00    3.90
  -7 -20  -3    1.40    5.10
  -7 -20  -4    6.30    5.20
  -7 -21   5    2.20    3.50
   7 -21  -5    4.50    5.80
   7  21  -4    6.00    3.60
   7 -21  -4    1.80    5.40
   7  21  -3    8.90    3.60
  -7 -21   3   12.60    4.50
   7 -21  -3    5.40    5.70
   7  21  -2   76.29    7.90
   7 -21  -2   79.59   10.90
  -7 -21   2   78.09   10.00
   7 -21  -1    1.90    5.00
  -7 -21   1   -0.80    3.10
  -7 -21   0   11.00    5.20
   7 -21   0   18.00    5.80
  -7 -21  -1   49.99    9.10
  -7 -21  -2   -2.70    4.50
  -7 -21  -3    7.50    5.50
   7  22  -3    3.20    3.80
   7 -22  -3   -1.50    5.60
  -7 -22   3   -1.20    3.50
  -7 -22   2   -0.10    3.50
   7 -22  -2    3.90    5.00
   7 -22  -1   -1.30    4.70
  -7 -22   1    2.90    4.40
   7 -22   0   -2.00    4.10
  -7 -22   0    3.30    4.40
  -7 -22  -1   -2.70    3.90
  -8   0  13   -2.60    3.10
  -8   0  12   -4.10    2.60
  -8   0  11   -1.20    2.40
  -8   0  10    8.60    3.30
   8   0 -10   21.10    4.30
  -8   0   9    0.60    2.20
   8   0  -9   -0.60    2.10
  -8   0   8   10.50    2.90
  -8   0   8    6.30    2.90
  -8   0   7    1.20    1.80
  -8   0   7   -1.00    1.80
  -8   0   6   19.80    3.10
  -8   0   6   18.50    3.70
  -8   0   5   -1.30    1.30
  -8   0   5    1.80    1.60
  -8   0   4   45.60    4.80
   8   0  -4   39.70    3.40
  -8   0   3   -1.00    1.00
   8   0  -3    0.00    1.00
   8   0  -2   74.39    4.30
  -8   0   2   67.59    4.90
   8   0  -1    1.20    1.30
  -8   0   1   -1.80    0.90
   8   0   0  348.77   10.80
  -8   0   0  367.06   12.20
   8   0   1    0.50    1.20
  -8   0  -1    0.10    1.30
  -8   0  -2    8.80    2.30
   8   0   2    7.90    2.30
  -8   0  -3    2.00    1.70
   8   0   3    0.40    1.70
  -8   0  -4   99.19    6.10
   8   0   4  113.99    7.10
   8   0   5   -3.60    1.60
  -8   0  -5    0.40    1.50
   8   0   6   10.00    4.00
  -8   0  -6   10.20    2.70
  -8   0  -7    0.20    2.10
   8   0   7    1.90    2.90
   8   0   8   49.60    7.50
   8   0   9    0.90    3.70
   8   0  10   29.50    6.70
  -8  -1  13   -0.30    3.50
  -8   1  12    4.10    3.30
  -8  -1  12    2.30    3.20
  -8   1  11   10.50    3.50
  -8  -1  11    7.70    3.50
  -8   1  10   21.20    4.00
  -8  -1  10   19.20    4.40
   8  -1 -10   15.00    4.00
  -8   1   9    6.10    2.60
   8   1  -9    0.20    2.10
  -8  -1   9   -0.20    2.00
   8  -1  -9    0.60    2.20
  -8   1   8   61.39    5.00
  -8  -1   8   69.09    5.70
   8  -1  -8   67.99    6.10
  -8  -1   8   66.49    5.60
  -8   1   7   -2.00    1.90
  -8   1   7    0.10    1.60
  -8  -1   7    3.30    2.00
  -8  -1   7    0.20    1.60
  -8   1   6   28.10    4.10
  -8   1   6   18.40    2.80
  -8  -1   6   19.40    3.20
  -8  -1   6   28.80    4.20
  -8   1   5    3.20    1.90
  -8   1   5    0.40    1.40
  -8  -1   5    0.50    1.50
  -8  -1   5   -0.70    1.30
  -8   1   4    2.80    1.80
   8  -1  -4    4.80    1.70
  -8  -1   4    6.40    2.10
  -8   1   3    0.90    1.30
   8   1  -3    2.60    1.30
  -8  -1   3    2.10    1.60
   8  -1  -3    2.00    1.30
   8   1  -2    9.00    1.90
  -8   1   2    6.30    1.90
   8  -1  -2   11.00    2.10
  -8  -1   2   11.30    2.60
   8   1  -1   66.39    4.30
  -8   1   1   70.79    5.00
   8  -1  -1   66.09    4.10
  -8  -1   1   68.89    5.00
   8   1   0  169.78    7.20
  -8   1   0  172.38    7.90
   8  -1   0  189.48    7.40
  -8  -1   0  196.08    8.50
  -8   1  -1    3.00    1.70
   8   1   1    2.00    1.50
   8  -1   1    3.30    1.70
  -8  -1  -1    3.40    1.90
  -8   1  -2   40.60    4.40
   8   1   2   37.90    4.10
  -8  -1  -2   34.60    4.30
   8  -1   2   42.20    4.40
  -8   1  -3   44.60    4.80
   8   1   3   39.80    4.60
  -8  -1  -3   53.49    4.50
   8  -1   3   44.10    5.00
  -8   1  -4   66.39    4.90
   8   1   4   64.09    5.50
  -8  -1  -4   71.29    5.30
   8  -1   4   78.49    6.00
  -8   1  -5    6.00    2.20
   8   1   5    4.80    2.70
   8  -1   5    6.30    3.20
  -8  -1  -5    5.50    2.40
  -8   1  -6   87.89    5.70
   8   1   6   85.59    7.30
  -8  -1  -6   82.29    5.80
   8  -1   6   76.59    7.90
   8   1   7    6.60    3.60
   8  -1   7    2.00    2.80
  -8  -1  -7    3.20    2.10
   8   1   8   12.20    4.60
   8  -1   8   14.80    4.80
   8   1   9    2.40    3.50
   8  -1   9   -0.80    3.50
   8   1  10    1.50    3.90
   8  -1  10    5.40    4.90
  -8  -2  13   -1.60    2.90
  -8  -2  12   14.10    4.60
  -8   2  11   41.40    5.40
  -8  -2  11   28.90    5.30
  -8   2  10    4.80    2.60
  -8  -2  10    6.40    3.50
   8  -2 -10    9.70    3.50
  -8   2   9   65.69    5.30
   8   2  -9   62.09    5.70
   8  -2  -9   57.39    6.90
  -8  -2   9   74.09    6.30
  -8   2   8   18.70    3.10
  -8  -2   8   20.60    4.10
  -8  -2   8   15.90    3.60
   8  -2  -8   17.20    4.20
  -8   2   7    2.40    2.30
  -8   2   7    3.30    1.70
  -8  -2   7    3.70    2.00
  -8  -2   7    3.50    2.10
  -8   2   6  140.59    8.10
  -8   2   6  150.38    6.50
  -8  -2   6  159.18    7.50
  -8  -2   6  138.19    7.50
  -8   2   5   41.20    5.00
  -8  -2   5   40.30    4.50
   8  -2  -5   43.50    3.40
  -8  -2   5   44.90    3.90
  -8   2   4   11.10    2.80
  -8  -2   4   14.60    2.90
  -8  -2   4    9.20    2.20
   8  -2  -4    7.40    1.70
   8   2  -3   41.50    3.50
  -8   2   3   38.40    4.50
  -8  -2   3   54.99    4.40
   8  -2  -3   44.00    3.30
  -8   2   2   52.19    4.40
   8   2  -2   56.29    4.10
   8  -2  -2   53.09    3.50
  -8  -2   2   58.59    4.40
   8   2  -1   25.30    3.20
  -8   2   1   40.60    4.50
   8  -2  -1   28.30    3.10
  -8  -2   1   35.50    4.20
   8   2   0  248.58    8.90
  -8   2   0  247.28    9.70
  -8  -2   0  240.18    9.80
   8  -2   0  250.67    8.60
  -8   2  -1   41.10    4.40
   8   2   1   41.50    4.20
  -8  -2  -1   41.70    4.60
   8  -2   1   42.50    3.70
   8   2   2   34.40    4.00
  -8   2  -2   34.50    4.00
  -8  -2  -2   33.80    4.30
   8  -2   2   28.40    3.70
   8   2   3   82.69    5.50
  -8   2  -3   81.69    5.30
   8  -2   3   79.59    5.80
  -8  -2  -3   87.59    6.10
  -8   2  -4    5.40    2.10
   8   2   4    9.40    2.90
  -8  -2  -4    5.00    2.10
   8  -2   4    1.50    2.30
  -8   2  -5   38.20    4.40
   8   2   5   34.30    4.90
   8  -2   5   41.00    5.60
  -8  -2  -5   33.70    4.40
  -8   2  -6   -1.40    1.20
   8   2   6   -2.10    2.40
   8  -2   6   -0.20    2.50
  -8  -2  -6    0.30    1.70
   8   2   7   -3.00    2.30
  -8  -2  -7    5.20    2.50
   8  -2   7   -4.40    2.40
   8   2   8   64.29    8.00
   8  -2   8   61.39    8.40
   8   2   9    5.60    3.90
   8  -2   9    4.60    4.30
   8   2  10   32.10    6.70
   8  -2  10   17.80    5.80
  -8  -3  13    5.40    4.30
  -8  -3  12    2.50    3.20
  -8   3  11    7.10    3.70
  -8  -3  11   11.40    4.20
   8  -3 -11    5.80    3.40
  -8   3  10   30.20    4.40
   8  -3 -10   22.70    5.10
  -8  -3  10   29.70    5.50
  -8   3   9    3.50    2.20
  -8  -3   9    2.50    2.40
   8  -3  -9    1.90    2.90
  -8  -3   9    2.20    2.90
  -8   3   8  176.78    7.60
  -8  -3   8  173.58    9.20
  -8  -3   8  171.58    8.70
   8  -3  -8  173.08    9.80
  -8   3   7   13.80    2.50
  -8  -3   7   15.70    3.20
  -8  -3   7   13.60    3.10
  -8   3   6  104.99    7.20
  -8   3   6  105.69    5.20
  -8  -3   6   92.69    6.00
  -8  -3   6   89.49    6.20
  -8   3   5  319.57   12.50
   8  -3  -5  306.87    9.30
  -8  -3   5  297.37   10.70
  -8  -3   5  295.87   11.10
  -8   3   4  104.69    6.70
   8  -3  -4  100.09    4.70
  -8  -3   4   98.49    5.60
  -8  -3   4  105.59    6.10
  -8   3   3   42.50    4.90
   8   3  -3   68.19    4.50
  -8  -3   3   58.79    4.50
   8  -3  -3   51.09    3.40
   8   3  -2  147.49    6.60
  -8   3   2  170.48    8.00
  -8  -3   2  139.89    7.30
   8  -3  -2  153.98    6.00
   8   3  -1    5.40    1.80
  -8   3   1   11.10    2.60
   8  -3  -1   11.90    2.10
  -8  -3   1   10.00    2.50
   8   3   0  152.68    6.80
  -8   3   0  142.59    7.10
  -8  -3   0  153.38    7.70
   8  -3   0  148.49    6.40
  -8   3  -1    0.20    1.30
   8   3   1   -1.10    1.10
  -8  -3  -1    0.10    1.70
   8  -3   1    0.50    1.50
   8   3   2    0.80    1.50
  -8   3  -2    2.70    1.70
   8  -3   2    3.30    2.00
  -8  -3  -2    0.30    1.70
  -8   3  -3    2.30    1.60
   8   3   3    0.40    1.60
   8  -3   3   -0.90    1.80
  -8  -3  -3    0.40    1.60
  -8   3  -4    7.80    2.20
   8   3   4    9.30    2.90
   8  -3   4    5.80    2.70
  -8  -3  -4   14.30    3.10
   8   3   5   20.70    4.10
  -8   3  -5   23.10    3.30
   8  -3   5   22.60    4.30
  -8  -3  -5   17.40    3.40
   8   3   6   34.20    5.60
  -8   3  -6   34.20    4.20
   8  -3   6   38.90    6.00
  -8  -3  -6   34.60    4.90
   8   3   7   17.70    4.40
   8  -3   7   32.40    6.00
  -8  -3  -7   20.20    4.00
   8   3   8    1.10    3.20
   8  -3   8   -0.70    3.40
   8   3   9    5.90    3.90
   8  -3   9   11.60    5.30
   8   3  10    1.50    3.70
   8  -3  10    0.70    4.40
  -8  -4  12   49.00    7.50
   8  -4 -11   15.60    4.90
  -8  -4  11   21.00    5.40
  -8   4  10    4.60    2.40
   8  -4 -10    3.20    2.90
  -8  -4  10    0.40    2.80
  -8   4   9    5.10    2.30
  -8  -4   9    7.50    2.60
   8  -4  -9    9.00    3.60
  -8  -4   9    3.90    2.80
  -8   4   8   13.80    2.70
  -8  -4   8    8.10    2.80
  -8  -4   8    3.70    2.90
   8  -4  -8   12.60    3.90
  -8   4   7    4.20    1.80
  -8  -4   7    0.10    2.40
  -8  -4   7    7.60    2.60
   8  -4  -7    3.60    2.70
  -8   4   6   55.39    6.20
  -8  -4   6   49.60    5.20
   8  -4  -6   51.29    3.70
  -8  -4   6   51.69    4.50
  -8   4   5   -1.40    1.60
  -8  -4   5    3.00    2.10
  -8  -4   5    0.00    1.80
   8  -4  -5    0.00    1.10
  -8   4   4    8.10    2.50
  -8  -4   4    4.30    2.00
   8  -4  -4    5.30    1.60
  -8  -4   4    9.30    2.50
   8   4  -3   28.40    3.50
  -8   4   3   31.60    4.30
  -8  -4   3   30.90    4.00
   8  -4  -3   32.60    2.70
   8   4  -2   28.60    3.40
  -8   4   2   32.50    4.30
  -8  -4   2   27.90    3.90
   8  -4  -2   28.50    2.80
   8   4  -1    3.90    1.80
  -8   4   1    6.90    2.30
  -8  -4   1    2.40    1.70
   8  -4  -1    4.50    1.60
   8   4   0  145.69    6.70
  -8   4   0  140.49    7.10
  -8  -4   0  118.49    7.00
   8  -4   0  132.09    6.10
   8   4   1   27.60    3.50
  -8   4  -1   28.30    3.80
  -8  -4  -1   25.10    3.90
   8  -4   1   33.40    4.00
   8   4   2   22.10    3.30
  -8   4  -2   30.50    3.90
  -8  -4  -2   29.70    4.30
   8  -4   2   23.40    3.90
   8   4   3   -0.60    1.70
  -8   4  -3    0.00    1.40
  -8  -4  -3    3.10    2.00
   8  -4   3    5.80    2.60
  -8   4  -4   30.30    3.70
   8   4   4   37.20    4.70
  -8  -4  -4   29.30    4.40
   8  -4   4   26.20    4.50
  -8   4  -5   -0.20    1.40
   8   4   5   -2.20    1.80
   8  -4   5   -1.70    2.20
  -8  -4  -5   -1.50    1.40
   8   4   6    7.70    3.20
   8  -4   6    5.70    3.40
  -8  -4  -6    8.10    3.00
   8   4   7   -2.10    2.20
  -8  -4  -7    3.00    2.20
   8  -4   7    1.40    3.50
   8   4   8    5.90    3.50
  -8  -4  -8    7.50    3.00
   8  -4   8   13.80    5.10
   8   4   9   -5.50    2.50
   8  -4   9    2.60    3.90
   8   4  10    1.30    3.70
   8  -4  10    3.60    4.40
  -8  -5  12    1.30    3.80
   8  -5 -11   13.00    4.70
  -8  -5  11    3.80    4.00
   8  -5 -10    0.00    2.80
  -8  -5  10   -0.40    2.90
  -8   5   9    2.20    2.10
   8  -5  -9   -2.40    2.90
  -8  -5   9   -2.20    2.30
  -8   5   8   60.19    4.20
  -8  -5   8   70.19    5.50
   8  -5  -8   72.29    7.90
  -8  -5   8   70.29    7.20
   8  -5  -7  383.26   15.60
  -8  -5   7  364.26   12.80
  -8  -5   7  374.76   14.00
   8  -5  -6   47.40    6.10
  -8  -5   6   50.39    5.20
   8  -5  -6   47.90    3.30
  -8  -5   6   36.90    4.80
  -8   5   5   47.30    5.80
  -8  -5   5   37.50    4.40
  -8  -5   5   43.90    4.80
   8  -5  -5   46.10    3.10
  -8   5   4   24.00    4.00
  -8  -5   4   36.50    4.40
   8  -5  -4   32.10    2.60
  -8  -5   4   35.60    4.20
   8   5  -3  378.36   12.20
  -8   5   3  375.76   13.80
   8  -5  -3  368.16   10.00
  -8  -5   3  394.36   13.20
   8   5  -2    2.50    1.70
  -8   5   2    5.10    2.20
  -8  -5   2    5.00    1.80
   8  -5  -2    2.60    1.30
  -8   5   1   79.39    5.60
   8   5  -1   77.29    5.00
   8  -5  -1   77.29    4.30
  -8  -5   1   83.09    5.80
  -8   5   0   11.00    2.70
   8   5   0    7.20    2.30
   8  -5   0    8.90    2.20
  -8  -5   0   12.70    3.00
  -8   5  -1    3.90    1.80
   8   5   1    5.50    2.00
   8  -5   1    5.30    2.00
  -8  -5  -1    8.20    2.70
  -8   5  -2   16.90    2.90
   8   5   2   26.10    3.70
   8  -5   2   16.50    3.20
  -8  -5  -2   15.60    3.40
   8   5   3    2.50    1.90
  -8   5  -3    0.40    1.60
  -8  -5  -3    2.70    2.20
   8  -5   3   -1.10    2.20
  -8   5  -4    5.30    1.90
   8   5   4    2.70    2.00
   8  -5   4    2.90    2.90
  -8  -5  -4    1.20    2.00
   8   5   5   66.89    5.70
  -8   5  -5   69.29    4.60
  -8  -5  -5   74.39    6.30
   8  -5   5   67.79    7.30
   8   5   6   12.50    3.60
   8  -5   6   12.30    4.30
  -8  -5  -6    9.30    3.30
   8   5   7   31.80    5.20
   8  -5   7   24.90    5.40
  -8  -5  -7   20.70    4.40
   8   5   8    5.30    3.30
  -8  -5  -8    2.50    2.60
   8  -5   8    4.70    3.90
   8   5   9    8.50    4.00
   8  -5   9    3.50    4.20
   8   5  10   -2.20    3.50
   8  -5  10    3.70    4.30
  -8  -6  12    1.60    3.60
   8  -6 -11    5.80    4.00
  -8  -6  11    2.00    3.70
   8  -6 -10    5.00    3.70
  -8  -6  10    5.30    3.70
   8  -6  -9    3.60    3.50
  -8  -6   9    4.50    3.10
   8  -6  -8  126.19    9.20
  -8  -6   8  131.69    7.10
  -8  -6   8  104.49    7.90
   8  -6  -7   12.70    2.20
   8  -6  -7   13.90    4.30
  -8  -6   7    7.90    3.00
  -8  -6   7   13.10    3.10
  -8  -6   6  117.69    6.80
   8  -6  -6  114.39    4.80
   8  -6  -6  124.19    8.70
  -8  -6   6  129.79    7.60
   8  -6  -5    0.10    0.90
  -8  -6   5    0.60    1.80
  -8  -6   5    2.20    1.70
  -8   6   4   58.49    5.40
   8  -6  -4   57.59    3.20
  -8  -6   4   67.89    5.20
  -8  -6   4   61.99    4.90
   8   6  -3    3.20    1.90
  -8   6   3   -3.70    1.20
  -8  -6   3    0.00    1.50
   8  -6  -3    0.30    0.90
  -8   6   2   10.40    2.80
   8   6  -2    6.40    2.10
  -8  -6   2    9.40    2.70
   8  -6  -2    6.90    1.80
   8   6  -1    0.20    1.30
  -8   6   1    0.90    1.80
  -8  -6   1   -0.80    1.50
   8  -6  -1   -1.30    1.10
  -8   6   0   -0.10    1.40
   8   6   0   -2.40    1.20
  -8  -6   0   -0.80    1.50
   8  -6   0   -0.70    1.50
   8   6   1   50.49    4.30
  -8   6  -1   54.89    4.50
  -8  -6  -1   58.29    5.30
   8  -6   1   50.49    4.90
  -8   6  -2   32.80    4.00
   8   6   2   25.70    3.70
  -8  -6  -2   34.20    4.90
   8  -6   2   29.80    4.10
  -8   6  -3   96.59    5.70
   8   6   3   98.19    6.00
   8  -6   3  110.79    7.10
  -8  -6  -3   98.99    7.20
   8   6   4    1.00    1.80
  -8   6  -4    2.20    1.60
   8  -6   4    3.50    2.70
  -8  -6  -4    1.50    2.10
  -8   6  -5   47.80    3.90
   8   6   5   46.70    5.60
   8  -6   5   44.00    6.10
  -8  -6  -5   41.30    5.70
   8   6   6    4.40    2.70
   8  -6   6   -3.20    2.60
  -8  -6  -6    2.50    2.40
   8   6   7    4.10    3.20
  -8  -6  -7    4.00    3.10
   8  -6   7    0.40    3.40
   8   6   8    6.40    3.70
   8  -6   8   13.60    5.10
  -8  -6  -8    6.50    3.40
   8   6   9    4.10    4.00
   8  -6   9   -0.80    3.90
   8   6  10   -2.90    3.30
   8  -6  10   -6.00    3.90
  -8  -7  12   11.60    5.00
   8  -7 -12   10.90    5.60
  -8  -7  11   23.80    5.80
   8  -7 -11   28.10    6.50
  -8  -7  10   -3.60    3.10
   8  -7 -10    3.00    3.40
  -8  -7   9   15.30    4.70
   8  -7  -9   18.00    4.90
   8  -7  -8    0.00    2.70
  -8  -7   8    2.80    2.10
  -8  -7   8    2.00    3.00
   8  -7  -7   -1.50    2.80
  -8  -7   7   -1.50    1.50
  -8  -7   7    0.50    2.40
   8  -7  -6    2.20    3.00
  -8  -7   6   -0.30    1.70
   8  -7  -6    2.00    1.20
  -8  -7   6   -1.60    1.80
  -8  -7   5    6.40    2.60
  -8  -7   5    6.60    2.50
   8  -7  -5   -0.30    2.50
   8  -7  -5    5.70    1.30
  -8   7   4   23.20    4.40
   8  -7  -4   24.70    2.10
  -8  -7   4   25.40    3.80
  -8  -7   4   26.80    3.90
  -8   7   3   -0.20    1.90
   8  -7  -3    4.50    1.30
  -8  -7   3    1.70    1.70
   8   7  -2    4.80    2.00
  -8   7   2    6.60    2.80
  -8  -7   2    5.70    2.40
   8  -7  -2    6.50    1.60
   8   7  -1  126.19    6.60
  -8   7   1  103.99    6.90
  -8  -7   1  129.69    7.60
   8  -7  -1  119.89    5.40
   8   7   0   19.80    3.20
  -8   7   0   25.00    4.00
  -8  -7   0   15.70    3.50
   8  -7   0   21.40    3.00
   8   7   1   -0.90    1.40
  -8   7  -1    3.80    1.90
   8  -7   1    0.70    1.60
  -8  -7  -1    2.70    2.40
  -8   7  -2  136.49    7.10
   8   7   2  139.69    7.00
  -8  -7  -2  133.89    8.30
   8  -7   2  138.69    7.50
  -8   7  -3  202.38    8.60
   8   7   3  215.08    9.10
   8  -7   3  197.98    9.70
  -8  -7  -3  200.18   10.50
  -8   7  -4   23.80    3.40
   8   7   4   25.30    4.00
   8  -7   4   17.90    4.00
  -8  -7  -4   20.00    4.20
   8   7   5   10.00    3.00
  -8  -7  -5    2.40    2.70
   8  -7   5    3.80    3.20
   8   7   6    3.60    2.70
  -8  -7  -6    3.00    2.60
   8  -7   6    9.60    3.80
   8   7   7   21.70    4.90
   8  -7   7   10.00    4.30
  -8  -7  -7   22.10    4.60
   8   7   8   52.79    7.10
   8  -7   8   54.49    8.30
  -8  -7  -8   40.10    6.50
   8   7   9    4.60    4.10
   8  -7   9   -2.60    3.20
   8   7  10   10.70    5.00
   8  -7  10   -1.50    4.30
   8  -8 -12   -2.40    4.60
  -8  -8  12   -2.00    3.80
   8  -8 -11    7.70    4.70
  -8  -8  11   11.20    5.00
  -8  -8  10   -3.50    2.50
   8  -8 -10    2.20    3.50
  -8  -8   9   36.50    6.10
   8  -8  -9   37.50    6.70
   8  -8  -8    0.30    2.90
  -8  -8   8    2.60    2.80
  -8  -8   7   17.10    4.10
   8  -8  -7   10.40    4.20
  -8  -8   7   18.30    3.40
  -8  -8   6    1.40    2.40
  -8  -8   6    7.40    2.40
   8  -8  -6    5.70    3.70
  -8  -8   5   93.69    6.30
  -8  -8   5  107.39    6.90
   8  -8  -5   73.89    7.90
   8  -8  -5   86.49    3.50
  -8  -8   4   69.29    5.50
   8  -8  -4   73.99    7.70
   8  -8  -4   75.89    3.40
  -8  -8   4   73.59    5.60
   8  -8  -3  133.89    5.00
  -8  -8   3  140.09    7.80
   8   8  -2    3.70    1.90
  -8   8   2    5.50    2.60
   8  -8  -2    4.30    1.60
   8   8  -1   15.70    2.90
  -8   8   1   15.20    3.40
   8  -8  -1   15.70    2.50
  -8  -8   1   21.10    3.90
  -8   8   0    2.90    1.80
   8   8   0    0.20    1.50
  -8  -8   0    2.60    2.10
   8  -8   0   -1.50    1.40
  -8   8  -1    3.10    1.80
   8   8   1   -0.50    1.40
   8  -8   1    4.20    2.20
  -8  -8  -1    2.40    2.00
   8   8   2   57.49    4.60
  -8   8  -2   54.79    4.80
  -8  -8  -2   46.30    5.90
   8  -8   2   49.90    5.30
  -8   8  -3   29.90    3.90
   8   8   3   26.00    3.80
   8  -8   3   23.50    4.20
  -8  -8  -3   25.10    4.70
  -8   8  -4    3.80    1.90
   8   8   4    0.50    1.60
  -8  -8  -4    3.40    2.90
   8  -8   4    0.10    2.90
   8   8   5    7.10    3.10
   8  -8   5   10.00    3.70
  -8  -8  -5    9.50    3.60
   8   8   6  118.09    8.10
   8  -8   6  110.29    9.10
  -8  -8  -6  131.29    9.30
   8   8   7    3.00    2.80
  -8  -8  -7    6.10    3.40
   8  -8   7   -1.20    3.50
   8   8   8    5.40    3.60
  -8  -8  -8    4.60    3.40
   8  -8   8   10.20    5.10
   8   8   9   -3.80    3.10
  -8  -8  -9   -0.40    3.20
   8  -8   9   -1.60    4.00
  -8  -9  12    2.20    4.00
   8  -9 -12    3.90    5.30
   8  -9 -11    1.80    4.60
  -8  -9  11    0.40    3.30
  -8  -9  10   16.30    5.40
   8  -9 -10   13.60    5.80
  -8  -9   9    1.50    3.20
   8  -9  -9    2.60    3.70
  -8  -9   8    0.20    3.00
   8  -9  -8    4.60    3.50
   8  -9  -7   44.50    7.00
  -8  -9   7   49.40    5.20
  -8  -9   7   34.90    5.40
  -8  -9   6   40.70    4.90
  -8  -9   6   41.80    5.60
   8  -9  -6   40.20    6.60
   8  -9  -5   76.69    8.30
  -8  -9   5   79.89    6.30
  -8  -9   5   91.99    6.30
  -8  -9   4  125.09    7.30
   8  -9  -4  127.39    8.90
   8  -9  -4  120.59    4.30
  -8  -9   4  121.79    7.50
   8  -9  -3  178.28    5.90
   8  -9  -3  167.28    9.80
  -8  -9   3  180.28    9.30
  -8  -9   3  190.08    8.80
   8   9  -2   49.99    5.10
   8  -9  -2   56.39    6.50
   8  -9  -2   50.09    3.50
  -8  -9   2   48.50    5.70
  -8   9   1  130.99    8.10
   8   9  -1  133.89    7.10
  -8  -9   1  121.09    7.90
   8  -9  -1  135.69    6.00
   8   9   0   -1.30    1.50
  -8   9   0   -1.60    1.50
  -8  -9   0   -2.00    1.10
   8  -9   0   -2.00    1.50
   8   9   1   20.10    3.30
  -8   9  -1   25.80    4.00
  -8  -9  -1   21.70    4.40
   8  -9   1   19.00    3.40
  -8   9  -2   16.90    3.30
   8   9   2   11.90    2.80
   8  -9   2   18.70    3.60
  -8  -9  -2   15.90    4.00
   8   9   3    9.60    2.80
  -8   9  -3    6.10    2.30
   8  -9   3    7.10    3.30
  -8  -9  -3    7.90    3.30
   8   9   4   44.90    5.10
   8  -9   4   53.49    6.80
  -8  -9  -4   50.39    6.70
   8   9   5   35.80    5.10
  -8  -9  -5   16.60    4.40
   8  -9   5   29.90    5.50
   8   9   6   -1.00    2.50
  -8  -9  -6   -1.40    2.50
   8  -9   6    0.20    2.90
   8   9   7    6.30    3.50
   8  -9   7    0.70    3.30
  -8  -9  -7    3.90    3.10
   8   9   8   48.70    6.90
  -8  -9  -8   34.10    6.30
   8  -9   8   38.20    7.40
   8   9   9    6.00    4.10
  -8  -9  -9    0.90    3.60
   8  -9   9    4.60    4.30
  -8 -10  11   -0.10    4.00
   8 -10 -11    4.70    5.00
   8 -10 -10    5.60    5.10
  -8 -10  10   11.00    4.70
   8 -10  -9    0.30    3.90
  -8 -10   9    4.70    3.40
  -8 -10   8   33.80    5.70
   8 -10  -8   48.50    7.60
  -8 -10   7   34.90    4.60
   8 -10  -7   40.90    6.90
  -8 -10   7   34.50    5.40
  -8 -10   6   -1.50    1.60
   8 -10  -6    3.60    3.40
  -8 -10   6   -0.70    2.10
  -8 -10   5   82.99    6.50
  -8 -10   5   93.49    6.50
   8 -10  -5   82.99    8.90
   8 -10  -4  235.08   12.60
  -8 -10   4  238.18   10.70
  -8 -10   4  253.07   10.90
   8 -10  -3    7.70    3.60
  -8 -10   3   12.70    3.30
   8 -10  -3    6.80    1.70
  -8 -10   3    5.90    2.60
   8  10  -2   10.80    3.00
   8 -10  -2   15.70    4.20
   8 -10  -2   16.60    2.40
  -8 -10   2   16.80    3.80
   8  10  -1  142.69    7.50
   8 -10  -1  156.88    9.10
  -8 -10   1  128.19    8.40
   8 -10  -1  132.09    6.10
   8  10   0    1.60    1.80
  -8 -10   0   -2.10    1.80
   8 -10   0   -1.10    1.60
   8 -10   0   -1.40    1.90
   8  10   1    1.30    1.80
   8 -10   1    1.20    2.10
   8 -10   1   -0.60    1.90
  -8 -10  -1    2.40    2.10
   8  10   2   15.30    3.10
   8 -10   2   12.70    3.30
   8 -10   2   15.20    3.50
  -8 -10  -2    8.80    3.50
   8  10   3   33.40    4.50
   8 -10   3   27.30    4.70
  -8 -10  -3   43.70    6.30
   8 -10   3   37.10    4.60
   8  10   4    5.90    2.30
  -8 -10  -4    6.40    3.50
   8 -10   4    4.10    3.40
   8 -10   4    6.10    2.30
   8  10   5    0.90    2.20
   8 -10   5   -2.00    3.10
  -8 -10  -5   -1.50    2.40
   8  10   6    3.00    2.80
  -8 -10  -6    5.80    3.60
   8 -10   6    0.80    3.20
   8  10   7   -3.40    2.30
   8 -10   7    1.70    3.50
  -8 -10  -7   -1.60    2.60
   8  10   8    3.30    3.40
  -8 -10  -8   10.80    4.30
   8 -10   8    7.70    5.20
   8  10   9   -7.60    5.40
  -8 -10  -9    0.60    3.50
   8 -10   9    6.70    4.60
   8 -11 -11    2.10    5.60
  -8 -11  11    2.20    4.30
  -8 -11  10    1.30    3.40
   8 -11 -10   12.90    6.00
   8 -11  -9   -1.00    3.60
  -8 -11   9   -0.90    2.80
   8 -11  -8   -2.30    3.20
  -8 -11   8   -2.20    2.40
  -8 -11   7   -2.40    2.40
   8 -11  -7   -0.30    3.10
  -8 -11   7   -0.50    1.70
   8 -11  -6    0.70    3.20
  -8 -11   6    0.40    1.90
  -8 -11   6   -1.00    2.10
  -8 -11   5    2.70    2.10
  -8 -11   5    4.60    2.80
   8 -11  -5    1.00    3.20
   8 -11  -4   45.10    6.80
  -8 -11   4   44.90    5.50
  -8 -11   4   38.80    5.00
  -8 -11   3    4.50    2.40
   8 -11  -3    2.50    3.20
   8  11  -2   48.30    5.30
   8 -11  -2   49.70    6.40
  -8 -11   2   59.19    6.60
   8 -11  -2   50.09    3.60
   8  11  -1   27.20    4.10
   8 -11  -1   20.10    3.00
  -8 -11   1   20.30    4.30
   8 -11  -1   24.30    4.80
   8  11   0    2.60    2.00
   8 -11   0    0.00    1.90
  -8 -11   0   -1.70    2.10
   8 -11   0    1.00    2.20
   8  11   1   46.60    5.10
   8 -11   1   43.00    5.50
  -8 -11  -1   27.70    5.20
   8 -11   1   32.60    4.40
   8  11   2   19.80    3.60
   8 -11   2   13.90    3.60
  -8 -11  -2   16.00    4.30
   8 -11   2   20.00    3.90
   8  11   3   84.69    5.90
  -8 -11  -3   87.19    8.00
   8 -11   3  104.99    7.80
   8 -11   3   97.99    6.50
   8  11   4    6.40    2.70
  -8 -11  -4    5.00    3.50
   8 -11   4    2.20    2.90
   8  11   5   -0.50    2.20
  -8 -11  -5    1.80    3.20
   8 -11   5   -2.00    2.70
   8  11   6    8.80    3.50
   8 -11   6    7.10    4.20
  -8 -11  -6   14.60    5.40
   8  11   7    3.90    3.10
   8 -11   7    2.40    4.00
  -8 -11  -7    3.90    3.50
   8  11   8   13.30    4.60
  -8 -11  -8   10.80    4.50
   8 -11   8    5.40    4.60
  -8 -11  -9   51.99    8.40
   8 -11   9   57.49    9.70
   8 -12 -11    6.30    5.60
  -8 -12  11    1.10    4.20
  -8 -12  10    7.00    3.90
   8 -12 -10    3.50    5.20
  -8 -12   9   10.60    4.40
   8 -12  -9    8.60    5.40
  -8 -12   8    8.10    3.80
   8 -12  -8   12.50    5.20
  -8 -12   7    2.80    3.10
   8 -12  -7   10.40    4.80
  -8 -12   6   -2.70    2.00
  -8 -12   6    1.00    1.90
   8 -12  -6    3.30    3.70
  -8 -12   5    2.00    2.50
  -8 -12   5   -0.10    1.80
   8 -12  -5   -1.40    2.80
   8 -12  -4   26.90    5.50
  -8 -12   4   30.20    4.80
  -8 -12   4   29.40    4.80
  -8 -12   3   13.40    3.60
   8 -12  -3   17.10    4.60
   8  12  -2  101.59    6.60
  -8 -12   2   83.69    7.10
   8 -12  -2   89.39    7.80
   8  12  -1    2.40    2.20
   8 -12  -1    5.70    3.30
   8 -12  -1    0.00    1.80
  -8 -12   1    0.90    2.60
   8  12   0   22.30    3.70
   8 -12   0   26.80    5.00
  -8 -12   0   35.10    5.70
   8 -12   0   18.00    3.50
   8  12   1   25.70    3.90
   8 -12   1   27.80    4.30
   8 -12   1   21.00    4.60
  -8 -12  -1   22.50    4.90
   8  12   2    0.00    1.70
   8 -12   2    1.60    2.70
  -8 -12  -2   -4.30    1.90
   8 -12   2    0.80    2.40
   8  12   3   18.70    3.60
   8 -12   3   13.50    3.30
  -8 -12  -3   14.00    4.60
   8 -12   3   12.60    3.80
   8  12   4    1.00    2.10
   8 -12   4   -0.60    2.50
  -8 -12  -4   -3.80    2.40
   8  12   5   -1.10    2.10
   8 -12   5    1.40    3.50
  -8 -12  -5    0.80    3.20
   8  12   6    4.70    3.00
   8 -12   6    1.00    3.60
  -8 -12  -6    2.10    4.20
   8  12   7   25.70    5.20
  -8 -12  -7   21.90    5.90
   8 -12   7   31.60    6.70
   8 -12   8   -1.70    3.50
  -8 -12  -8   -0.50    3.20
   8 -13 -10    5.60    5.50
  -8 -13  10    0.60    3.30
  -8 -13   9    3.60    3.60
   8 -13  -9   10.90    5.50
   8 -13  -8   10.00    5.10
  -8 -13   8   12.30    4.10
  -8 -13   7    4.20    3.70
   8 -13  -7    5.80    4.30
  -8 -13   6   -2.20    1.50
  -8 -13   6    0.10    2.40
   8 -13  -6   -1.50    3.40
  -8 -13   5    1.60    2.40
  -8 -13   5   -0.30    2.10
   8 -13  -5    3.00    3.80
  -8 -13   4   10.10    3.40
  -8 -13   4    3.00    2.70
   8 -13  -4    7.80    4.30
   8  13  -3   37.00    4.90
   8 -13  -3   30.60    6.10
  -8 -13   3   28.80    4.90
   8  13  -2   34.60    4.80
   8 -13  -2   37.70    6.30
  -8 -13   2   28.20    5.00
   8  13  -1   -1.00    1.80
   8 -13  -1   -1.00    3.10
   8 -13  -1   -3.50    2.40
  -8 -13   1    8.50    3.30
   8  13   0   15.80    3.30
   8 -13   0   14.30    4.30
   8 -13   0   24.50    3.80
  -8 -13   0   17.60    4.60
   8  13   1   40.20    4.70
   8 -13   1   44.00    6.00
   8 -13   1   45.00    5.40
  -8 -13  -1   50.29    7.10
   8  13   2   73.29    5.80
   8 -13   2   69.19    7.10
  -8 -13  -2   73.19    8.80
   8 -13   2   72.99    6.50
   8  13   3    4.10    2.30
  -8 -13  -3    3.80    3.70
   8 -13   3    8.20    3.50
   8 -13   3    4.70    2.60
   8  13   4    1.00    2.00
   8 -13   4    0.60    3.00
  -8 -13  -4    1.40    3.10
   8  13   5   18.30    4.10
  -8 -13  -5   17.70    5.50
   8 -13   5   26.40    5.90
   8  13   6    6.90    3.30
  -8 -13  -6   -1.50    3.20
   8 -13   6    0.30    3.50
  -8 -13  -7    7.40    4.90
   8 -13   7   -1.60    3.30
   8 -13   8   -0.50    4.40
  -8 -13  -8   -2.80    3.20
  -8 -14  10    2.30    4.00
   8 -14 -10   -3.10    4.30
   8 -14  -9    0.00    4.60
  -8 -14   9    5.20    4.40
  -8 -14   8    1.80    3.20
   8 -14  -8    1.10    3.90
  -8 -14   7   -0.70    2.60
   8 -14  -7    0.30    3.70
  -8 -14   6   -2.60    1.70
  -8 -14   6   -1.60    2.40
   8 -14  -6    4.20    3.90
  -8 -14   5   34.70    5.30
  -8 -14   5   24.00    4.40
   8 -14  -5   27.40    6.30
  -8 -14   4   16.70    4.10
   8 -14  -4    7.40    4.30
  -8 -14   4   13.00    3.70
   8  14  -3    0.50    2.60
  -8 -14   3   -1.60    2.20
   8 -14  -3    0.20    2.90
   8  14  -2   18.80    3.90
  -8 -14   2   25.00    5.00
   8 -14  -2   15.90    4.80
   8  14  -1   86.99    6.40
  -8 -14   1   97.49    8.20
   8 -14  -1   91.49    8.20
   8  14   0   22.70    4.20
   8 -14   0   32.00    4.40
   8 -14   0   28.20    5.40
  -8 -14   0   26.40    5.60
   8  14   1    2.20    2.10
   8 -14   1    4.60    3.00
  -8 -14  -1    5.50    3.70
   8 -14   1    2.40    2.50
   8  14   2    7.20    2.70
   8 -14   2    7.40    3.30
   8 -14   2   11.20    3.60
  -8 -14  -2    6.10    3.50
   8  14   3    8.10    2.70
   8 -14   3    4.30    3.30
  -8 -14  -3   14.70    4.90
   8 -14   3   11.10    5.60
   8  14   4   30.50    4.70
   8 -14   4   22.60    5.30
  -8 -14  -4   16.80    5.20
   8  14   5   30.50    4.80
  -8 -14  -5   29.50    6.60
   8 -14   5   18.80    5.00
  -8 -14  -6    4.60    4.50
   8 -14   6    6.80    4.10
   8 -14   7   -3.60    3.20
  -8 -14  -7    5.90    4.80
   8 -15  -9   35.10    8.40
  -8 -15   9   25.00    5.80
  -8 -15   8    4.30    4.20
   8 -15  -8    3.60    4.90
   8 -15  -7   -0.50    3.20
  -8 -15   7    2.70    3.00
   8 -15  -6    1.00    4.30
  -8 -15   6    9.20    3.60
  -8 -15   5    8.90    3.40
   8 -15  -5   10.30    5.00
  -8 -15   5   13.30    4.10
   8 -15  -4   -2.10    3.20
  -8 -15   4    4.10    2.70
  -8 -15   4    4.90    3.10
   8  15  -3   12.70    3.60
   8 -15  -3   12.70    4.80
  -8 -15   3   19.00    4.60
   8  15  -2   -2.10    1.90
  -8 -15   2    3.30    2.80
   8 -15  -2    1.10    3.10
   8  15  -1   23.60    4.10
   8 -15  -1   26.90    5.30
  -8 -15   1   25.90    5.40
   8  15   0  100.59    7.10
   8 -15   0  107.59    8.90
  -8 -15   0   97.69    8.80
   8  15   1   31.60    4.60
   8 -15   1   32.80    5.90
   8 -15   1   29.40    4.70
  -8 -15  -1   20.50    5.30
   8  15   2   27.20    4.30
   8 -15   2   34.50    5.50
  -8 -15  -2   24.50    5.90
   8 -15   2   28.50    5.20
   8  15   3   41.40    5.20
   8 -15   3   25.90    5.20
  -8 -15  -3   34.60    6.70
   8  15   4    9.80    3.10
  -8 -15  -4    4.50    4.60
   8 -15   4   19.60    5.40
   8 -15   5   51.19    8.00
  -8 -15  -5   57.99    9.30
  -8 -15  -6    8.80    5.10
   8 -15   6    6.60    4.80
   8 -15   7   54.99    8.80
  -8 -15  -7   54.49    9.50
  -8 -16   9    4.60    3.80
   8 -16  -9   14.60    7.10
   8 -16  -8   57.79   10.30
  -8 -16   8   72.79    8.80
  -8 -16   7   -0.70    3.00
   8 -16  -7    2.20    4.60
   8 -16  -6    2.80    4.50
  -8 -16   6   -1.40    2.70
   8 -16  -5   22.70    6.60
  -8 -16   5   19.70    4.50
  -8 -16   5   20.70    4.50
  -8 -16   4    2.40    2.50
   8 -16  -4    2.60    4.00
  -8 -16   4   -0.70    2.50
   8  16  -3   16.40    3.90
   8 -16  -3   24.00    5.90
  -8 -16   3   15.40    4.20
   8  16  -2    8.70    3.10
   8 -16  -2   10.00    4.70
  -8 -16   2    6.40    3.40
   8  16  -1    2.70    2.40
   8 -16  -1    2.70    3.50
  -8 -16   1   -0.40    2.60
   8  16   0    7.60    3.00
  -8 -16   0    1.90    3.40
   8 -16   0    2.50    3.20
   8  16   1   -0.80    1.80
  -8 -16  -1    5.10    3.60
   8 -16   1    7.70    3.50
   8  16   2    7.80    2.90
  -8 -16  -2    2.10    3.80
   8 -16   2   13.30    4.10
   8 -16   2    5.90    3.10
   8  16   3    4.20    2.50
   8 -16   3    1.60    3.00
  -8 -16  -3    8.00    4.70
   8 -16   4    3.10    3.50
  -8 -16  -4    7.60    4.80
  -8 -16  -5   10.40    5.40
   8 -16   5   10.90    4.70
  -8 -16  -6    6.90    4.80
   8 -16   6    7.80    4.80
   8 -17  -8   -0.60    6.00
  -8 -17   8   -1.30    3.70
  -8 -17   7   18.40    4.90
   8 -17  -7   22.90    7.50
  -8 -17   6    6.30    3.40
   8 -17  -6    4.00    4.80
  -8 -17   5   17.90    4.50
   8 -17  -5   17.60    6.20
  -8 -17   5   18.00    4.40
  -8 -17   4   34.80    5.80
   8 -17  -4   45.10    8.30
  -8 -17   4   32.40    5.30
   8  17  -3   -0.50    2.10
  -8 -17   3   -0.90    2.40
   8 -17  -3   -2.50    3.30
   8  17  -2   -0.20    1.70
  -8 -17   2    0.40    3.10
   8 -17  -2    2.80    4.00
   8  17  -1   -1.30    2.00
  -8 -17   1   -1.00    2.60
   8 -17  -1    0.10    3.50
   8  17   0   -2.90    1.80
  -8 -17   0    0.50    2.90
   8 -17   0   -3.50    2.70
   8  17   1    0.80    2.20
  -8 -17  -1    1.70    3.60
   8 -17   1    2.20    3.60
   8  17   2    3.80    2.60
  -8 -17  -2   -0.70    3.60
   8 -17   2   -0.20    3.10
   8 -17   3   15.30    4.40
  -8 -17  -3    9.40    5.40
  -8 -17  -4    3.10    4.40
   8 -17   4    6.10    4.10
  -8 -17  -5    5.50    5.00
   8 -17   5   17.00    5.30
  -8 -17  -6   -0.50    4.20
   8 -17   6    4.10    4.40
  -8 -18   8    0.90    3.40
   8 -18  -8   -7.20    4.80
  -8 -18   7   26.90    6.10
   8 -18  -7   34.80    8.50
  -8 -18   6    8.70    4.10
   8 -18  -6    3.20    5.50
  -8 -18   5    3.30    3.40
   8 -18  -5   12.60    6.20
   8 -18  -4    1.90    4.50
  -8 -18   4   -1.50    2.40
   8  18  -3    0.50    2.60
   8 -18  -3    3.90    4.60
  -8 -18   3   -0.80    2.50
   8  18  -2   13.60    3.80
  -8 -18   2    5.20    3.50
   8 -18  -2   17.00    5.80
   8  18  -1    5.90    2.80
   8 -18  -1    1.60    3.80
  -8 -18   1    1.60    3.20
   8  18   0    4.60    2.60
  -8 -18   0    1.70    3.50
   8 -18   0    3.60    3.90
   8  18   1   11.10    3.20
   8 -18   1   14.00    5.00
  -8 -18  -1    7.60    4.60
  -8 -18  -2    9.40    5.00
  -8 -18  -3   -0.60    3.90
   8 -18   4    3.00    3.60
  -8 -18  -4    3.70    4.60
   8 -18   5    0.50    3.40
  -8 -18  -5   -0.10    4.50
   8 -19  -7    0.90    5.60
  -8 -19   7   -2.10    2.60
  -8 -19   6   43.00    7.20
   8 -19  -6   31.00    8.40
  -8 -19   5    8.60    3.80
   8 -19  -5    4.50    5.30
   8  19  -4    9.20    3.70
  -8 -19   4   18.20    4.90
   8 -19  -4    8.70    5.80
   8  19  -3    2.80    2.70
  -8 -19   3    3.60    3.30
   8 -19  -3    8.90    5.10
   8  19  -2    3.90    2.90
  -8 -19   2    0.00    3.50
   8 -19  -2    2.20    4.00
   8  19  -1   -0.20    2.40
   8 -19  -1    3.00    4.30
  -8 -19   1    2.40    3.50
   8  19   0    7.50    3.10
   8 -19   0    9.60    5.40
  -8 -19   0    4.50    4.40
   8 -19   1    5.60    4.50
  -8 -19  -1   -2.90    3.70
  -8 -19  -2    3.70    4.50
  -8 -19  -3    1.50    4.10
  -8 -19  -4    2.70    4.20
   8 -20  -6   -3.40    5.00
  -8 -20   6    1.90    3.50
   8 -20  -5   -2.50    5.40
   8  20  -4   27.50    5.40
   8 -20  -4   40.10    8.80
  -8 -20   4   38.00    6.70
   8  20  -3   -3.70    2.30
  -8 -20   3   -0.40    3.20
   8 -20  -3    4.70    5.40
   8  20  -2    4.10    3.20
  -8 -20   2    5.40    3.90
   8 -20  -2    6.40    5.50
   8  20  -1    6.30    3.40
   8 -20  -1    6.20    4.90
  -8 -20   1    0.40    3.40
   8 -20   0   31.50    6.60
  -8 -20   0   24.80    6.60
  -8 -20  -1    4.30    4.40
   8 -20   1    3.70    5.00
  -8 -20  -2   12.00    5.60
  -8 -20  -3   -3.40    4.10
   8  21  -4    2.50    2.80
   8 -21  -4   -0.40    5.40
   8  21  -3    1.80    3.00
  -8 -21   3    5.90    4.30
   8 -21  -3    0.00    4.80
   8  21  -2   18.40    4.70
   8 -21  -2   13.30    6.50
  -8 -21   2   11.80    4.80
  -8 -21   1   -1.90    3.70
   8 -21  -1   -2.30    4.30
  -8 -21   0  109.19   12.60
   8 -21   0  108.29   11.90
  -8 -21  -1    6.40    5.10
  -8 -21  -2    1.90    5.40
  -9   0  13    3.40    5.00
  -9   0  12   -1.00    2.80
  -9   0  11   -1.70    2.50
   9   0 -10   -0.70    2.40
  -9   0  10    2.10    2.40
   9   0  -9    4.80    3.00
  -9   0   9    0.00    2.20
  -9   0   8    1.10    2.10
  -9   0   8    0.70    1.80
  -9   0   7   -0.60    1.50
  -9   0   7    0.30    2.10
  -9   0   6    1.70    2.10
  -9   0   6    3.70    1.80
   9   0  -5   -3.40    0.90
  -9   0   5    3.20    2.10
   9   0  -4   30.70    3.50
  -9   0   4   28.40    4.20
   9   0  -3   -0.80    1.00
  -9   0   3   -0.70    1.30
  -9   0   2    5.60    2.20
   9   0  -2    7.00    1.90
   9   0  -1    1.70    1.40
  -9   0   1    1.30    1.40
  -9   0   0 1006.40   25.70
   9   0   0  992.50   23.50
   9   0   1    0.50    1.30
  -9   0  -1    1.30    1.60
  -9   0  -2  416.06   14.40
   9   0   2  425.86   13.60
  -9   0  -3   -0.10    1.50
   9   0   3    0.90    2.10
  -9   0  -4    1.40    1.80
   9   0   4   -2.70    1.70
  -9   0  -5   -2.60    0.90
   9   0   5    0.40    2.70
  -9   0  -6   55.09    5.10
   9   0   6   65.19    7.50
   9   0   7   -2.20    2.90
   9   0   8   29.00    6.10
   9   0   9   -2.80    3.10
   9   0  10  103.49   11.60
  -9  -1  13   24.10    5.30
  -9   1  12    1.50    2.90
  -9  -1  12    1.70    3.30
  -9   1  11    1.40    2.40
  -9  -1  11    2.60    3.00
  -9   1  10    0.30    2.40
   9   1 -10   -0.50    2.30
   9  -1 -10    1.50    2.70
  -9  -1  10    3.90    2.80
  -9   1   9   13.70    3.40
   9  -1  -9   13.40    3.70
  -9  -1   9   10.60    3.40
  -9   1   8    4.00    2.20
  -9   1   8    6.60    3.30
  -9  -1   8    4.60    2.70
  -9  -1   8   -1.00    1.90
  -9   1   7    3.20    1.90
  -9   1   7    1.30    2.40
  -9  -1   7    0.00    1.70
  -9  -1   7   -0.90    1.80
  -9   1   6   21.10    4.00
  -9   1   6   26.40    3.50
  -9  -1   6   21.00    3.40
  -9  -1   6   19.10    3.60
  -9   1   5   -1.00    1.70
   9  -1  -5    1.20    1.60
  -9  -1   5    0.90    1.90
   9   1  -4  172.08    7.50
  -9   1   4  162.58    8.50
  -9  -1   4  154.68    8.10
   9  -1  -4  170.18    6.90
   9   1  -3   16.10    2.70
  -9   1   3   18.60    3.50
  -9  -1   3   15.90    3.20
   9  -1  -3   11.00    2.20
  -9   1   2   16.60    3.20
   9   1  -2   15.90    2.70
   9  -1  -2   15.30    2.50
  -9  -1   2   26.10    3.80
  -9   1   1   57.79    4.80
   9   1  -1   56.59    4.40
  -9  -1   1   51.59    4.70
   9  -1  -1   57.49    4.20
  -9   1   0    1.20    1.60
   9   1   0    0.00    1.40
  -9  -1   0    0.20    1.80
   9  -1   0   -0.70    1.30
   9   1   1    2.00    1.70
  -9   1  -1   -0.20    1.50
  -9  -1  -1    0.70    1.60
   9  -1   1    4.40    2.30
   9   1   2    6.00    2.30
  -9   1  -2    7.00    2.20
   9  -1   2    6.00    2.50
  -9  -1  -2    3.90    2.20
   9   1   3    0.80    2.00
  -9   1  -3   -0.20    1.60
  -9  -1  -3   -0.50    1.60
   9  -1   3    1.20    2.00
   9   1   4    7.80    3.00
  -9   1  -4    5.80    2.30
   9  -1   4    8.50    3.00
  -9  -1  -4    9.70    2.80
   9   1   5   36.10    5.30
  -9   1  -5   32.10    4.30
  -9  -1  -5   27.10    4.20
   9  -1   5   37.20    5.60
  -9   1  -6   -0.70    1.50
   9   1   6   -4.00    2.10
  -9  -1  -6    1.30    1.80
   9  -1   6    0.70    3.10
   9   1   7    4.30    3.30
  -9  -1  -7    2.60    2.10
   9  -1   7    4.30    3.40
   9   1   8    5.50    3.80
   9  -1   8    8.80    4.30
   9   1   9    3.30    3.90
   9  -1   9    3.70    4.20
   9   1  10   -0.30    4.70
   9  -1  10    1.40    4.10
  -9  -2  12   19.30    5.00
  -9   2  11   25.00    4.50
  -9  -2  11   24.90    5.20
  -9   2  10   30.50    4.50
  -9  -2  10   19.10    4.50
   9  -2 -10   20.70    4.70
  -9   2   9    2.90    2.20
   9  -2  -9    8.20    3.30
  -9  -2   9    5.30    2.90
  -9  -2   9    3.80    2.50
  -9   2   8   11.20    2.70
  -9  -2   8    7.40    2.80
  -9  -2   8   11.00    3.20
  -9   2   7   11.50    2.60
  -9   2   7   14.30    3.80
  -9  -2   7   11.50    3.00
  -9  -2   7   19.60    3.80
  -9   2   6    3.20    2.40
  -9  -2   6    5.20    2.10
   9  -2  -6    3.60    1.70
  -9  -2   6    2.50    2.10
  -9   2   5   39.50    5.10
  -9  -2   5   33.80    4.00
  -9  -2   5   31.00    4.30
   9  -2  -5   24.70    3.00
   9   2  -4   10.30    2.50
  -9   2   4   13.70    3.30
  -9  -2   4   10.60    2.80
   9  -2  -4   12.60    2.40
  -9   2   3    1.10    1.90
   9   2  -3    4.70    1.80
   9  -2  -3    3.80    1.50
  -9  -2   3    4.50    2.00
   9   2  -2   -0.70    1.20
  -9   2   2   -1.60    1.20
  -9  -2   2    1.90    1.80
   9  -2  -2    0.60    1.30
   9   2  -1    5.40    2.00
  -9   2   1    9.80    2.60
   9  -2  -1    7.70    2.10
  -9  -2   1    9.00    2.50
  -9   2   0   66.19    5.20
   9   2   0   64.69    4.70
   9  -2   0   67.39    4.70
  -9  -2   0   76.89    5.70
   9   2   1   10.30    2.50
  -9   2  -1   13.80    3.00
   9  -2   1    3.90    1.80
  -9  -2  -1   14.00    3.20
   9   2   2    2.90    1.80
  -9   2  -2   -0.20    1.50
  -9  -2  -2    2.50    1.90
   9  -2   2    0.20    1.80
  -9   2  -3    5.00    2.20
   9   2   3    3.10    2.10
  -9  -2  -3    2.60    2.00
   9  -2   3    4.30    2.60
  -9   2  -4    6.20    2.30
   9   2   4    2.80    2.40
   9  -2   4   10.30    3.20
  -9  -2  -4   10.50    2.90
  -9   2  -5   -0.80    1.60
   9   2   5   -0.60    2.10
  -9  -2  -5   -0.50    1.70
   9  -2   5    0.30    2.80
  -9   2  -6    3.60    2.00
   9   2   6   -1.90    2.20
  -9  -2  -6    1.60    2.20
   9  -2   6   -0.50    2.50
   9   2   7    3.10    3.20
  -9  -2  -7    2.30    2.10
   9  -2   7   -0.90    3.00
   9   2   8    1.90    3.60
   9  -2   8   -0.50    3.10
   9   2   9    1.60    4.10
   9  -2   9   14.00    5.60
   9   2  10   18.10    6.20
   9  -2  10    3.30    5.10
  -9  -3  12    1.30    3.00
   9  -3 -11   29.60    5.80
  -9  -3  11   16.60    4.40
  -9   3  10    6.00    2.70
  -9  -3  10    4.10    3.00
   9  -3 -10    4.90    3.30
  -9   3   9   16.10    3.10
   9  -3  -9   14.80    4.00
  -9  -3   9   23.00    4.20
  -9  -3   9   12.20    3.70
  -9   3   8   22.30    3.40
  -9  -3   8   19.50    3.90
   9  -3  -8   27.70    5.20
  -9  -3   8   25.50    4.20
  -9   3   7   22.90    4.40
  -9   3   7   19.90    3.10
  -9  -3   7   27.00    4.20
  -9  -3   7   22.70    4.00
  -9   3   6  203.68   10.40
  -9  -3   6  195.38    8.90
  -9  -3   6  194.18    9.20
   9  -3  -6  189.58    7.50
  -9   3   5  105.59    7.40
  -9  -3   5  118.29    7.00
  -9  -3   5  116.99    6.60
   9  -3  -5  117.29    5.50
   9   3  -4    1.20    1.70
  -9   3   4    9.50    2.70
   9  -3  -4    2.80    1.50
  -9  -3   4    2.80    1.90
   9   3  -3   97.19    5.70
  -9   3   3   82.69    6.00
  -9  -3   3   86.99    6.00
   9  -3  -3   95.79    4.90
  -9   3   2   91.89    6.30
   9   3  -2   88.89    5.40
  -9  -3   2  100.89    6.50
   9  -3  -2  101.09    5.10
  -9   3   1    0.40    1.60
   9   3  -1    0.00    1.40
   9  -3  -1    0.10    1.30
  -9  -3   1   -0.60    1.50
  -9   3   0    2.40    1.80
   9   3   0   -0.60    1.30
   9  -3   0   -0.30    1.40
  -9  -3   0    1.60    2.00
   9   3   1   29.30    3.90
  -9   3  -1   23.30    3.70
   9  -3   1   26.50    3.60
  -9  -3  -1   23.30    3.90
  -9   3  -2   27.50    4.00
   9   3   2   23.50    3.60
   9  -3   2   32.10    4.30
  -9  -3  -2   28.30    4.30
   9   3   3    1.50    1.90
  -9   3  -3    1.90    1.80
   9  -3   3    7.30    2.70
  -9  -3  -3   -0.50    1.90
  -9   3  -4   -0.50    1.40
   9   3   4    1.90    2.20
  -9  -3  -4   -0.40    1.90
   9  -3   4    1.80    2.30
   9   3   5   29.30    4.80
  -9   3  -5   29.00    4.00
   9  -3   5   25.70    4.90
  -9  -3  -5   37.20    5.00
   9   3   6   25.10    5.00
  -9  -3  -6   37.20    5.30
   9  -3   6   29.30    5.50
   9   3   7   31.40    6.00
   9  -3   7   36.70    6.50
  -9  -3  -7   31.70    5.20
   9   3   8   28.10    5.70
   9  -3   8   30.50    6.20
   9   3   9   -1.00    3.80
   9  -3   9   -0.80    3.40
   9   3  10   -1.30    3.80
   9  -3  10    0.80    4.20
  -9  -4  12    4.10    3.80
   9  -4 -11   56.89    7.90
  -9  -4  11   52.29    7.30
   9  -4 -10   11.00    4.20
  -9  -4  10    4.00    3.40
  -9   4   9   10.80    2.70
  -9  -4   9    9.90    3.30
   9  -4  -9    7.70    3.90
  -9  -4   9    8.40    2.90
  -9   4   8    1.70    1.80
   9  -4  -8   -0.80    2.50
  -9  -4   8    2.70    2.60
  -9  -4   8    0.70    1.90
  -9  -4   7    5.20    2.70
  -9  -4   7   10.20    3.00
   9  -4  -7    7.30    2.00
  -9   4   6    5.30    2.80
  -9  -4   6    9.10    3.10
   9  -4  -6    2.90    1.60
  -9  -4   6    5.90    2.60
  -9   4   5   59.89    6.60
   9  -4  -5   63.19    4.00
  -9  -4   5   73.59    5.40
  -9  -4   5   65.09    5.30
  -9   4   4    1.80    1.80
   9   4  -4    0.20    1.80
  -9  -4   4    0.10    1.50
   9  -4  -4    0.20    1.10
  -9   4   3    4.00    2.30
   9   4  -3    5.50    2.30
   9  -4  -3   11.60    2.20
  -9  -4   3   13.80    3.00
   9   4  -2   -0.10    1.30
  -9   4   2    1.10    1.80
   9  -4  -2   -0.50    1.10
  -9  -4   2   -1.30    1.30
   9   4  -1    3.00    1.80
  -9   4   1    2.90    2.00
   9  -4  -1    2.30    1.50
  -9  -4   1    5.40    2.20
  -9   4   0   51.69    5.40
   9   4   0   47.60    4.20
  -9  -4   0   56.89    5.20
   9  -4   0   54.69    4.20
   9   4   1   44.80    4.80
  -9   4  -1   43.20    4.80
   9  -4   1   48.30    4.80
  -9  -4  -1   45.10    5.40
   9   4   2   58.09    4.90
  -9   4  -2   61.79    5.00
  -9  -4  -2   39.00    5.10
   9  -4   2   59.79    5.10
  -9   4  -3    5.80    2.10
   9   4   3    3.50    2.20
  -9  -4  -3    8.10    2.90
   9  -4   3    6.80    2.80
  -9   4  -4    5.20    2.10
   9   4   4    5.60    2.70
  -9  -4  -4    3.60    2.30
   9  -4   4    3.10    2.50
  -9   4  -5   24.90    3.80
   9   4   5   40.40    5.50
   9  -4   5   20.80    4.60
  -9  -4  -5   19.00    3.90
   9   4   6   53.69    6.60
  -9  -4  -6   39.00    5.50
   9  -4   6   43.80    6.70
   9   4   7   -1.60    2.40
  -9  -4  -7   -2.90    1.90
   9  -4   7   -4.30    2.50
   9   4   8    1.80    3.10
   9  -4   8    2.70    3.60
   9   4   9    2.30    4.10
   9  -4   9   -0.60    3.90
   9  -4  10   -1.20    4.50
  -9  -5  12   11.00    4.50
  -9  -5  11   16.10    5.10
   9  -5 -11   14.00    4.90
   9  -5 -10   21.80    5.20
  -9  -5  10   24.80    5.20
   9  -5  -9   -2.00    2.40
  -9  -5   9    6.60    3.20
  -9  -5   9    0.10    2.50
  -9  -5   8    6.20    3.00
   9  -5  -8    2.60    3.00
  -9  -5   8    4.80    2.50
   9  -5  -7  160.28   10.10
  -9  -5   7  163.98    9.20
   9  -5  -7  164.78    6.70
  -9  -5   7  165.78    8.60
  -9   5   6   -0.20    2.20
  -9  -5   6    1.40    1.80
   9  -5  -6    1.90    1.40
  -9  -5   6    1.00    2.30
  -9   5   5  515.35   18.20
  -9  -5   5  511.45   16.30
   9  -5  -5  521.05   13.30
  -9  -5   5  502.55   15.70
  -9   5   4  374.46   14.70
   9  -5  -4  387.46   10.60
  -9  -5   4  369.16   13.40
  -9   5   3   10.80    3.20
   9   5  -3   12.80    2.80
  -9  -5   3   11.80    3.00
   9  -5  -3   20.20    2.60
   9   5  -2   49.40    4.30
  -9   5   2   49.99    5.60
  -9  -5   2   46.40    5.40
   9  -5  -2   40.50    3.30
   9   5  -1    8.30    2.40
  -9   5   1   14.90    3.30
   9  -5  -1   10.50    2.30
  -9  -5   1    5.20    2.40
   9   5   0   16.00    3.00
  -9   5   0   14.50    3.10
   9  -5   0   12.40    2.40
  -9  -5   0   15.90    3.30
   9   5   1   36.70    4.30
  -9   5  -1   51.29    4.50
  -9  -5  -1   39.80    5.20
   9  -5   1   55.79    5.30
  -9   5  -2   20.10    3.40
   9   5   2   16.50    3.30
   9  -5   2   19.00    3.80
  -9  -5  -2   14.70    3.40
   9   5   3    4.10    2.10
  -9   5  -3    8.10    2.40
   9  -5   3    5.40    2.90
  -9  -5  -3    4.40    2.50
   9   5   4    6.00    2.50
  -9   5  -4    3.10    1.90
   9  -5   4    7.40    3.10
  -9  -5  -4    4.80    2.40
   9   5   5   47.90    6.00
  -9   5  -5   44.30    4.10
   9  -5   5   57.99    7.10
  -9  -5  -5   47.90    6.10
   9   5   6   40.20    5.90
  -9  -5  -6   31.90    5.20
   9  -5   6   33.60    6.10
   9   5   7   11.10    3.70
  -9  -5  -7   10.00    3.50
   9  -5   7    8.00    4.30
   9   5   8    3.30    3.20
  -9  -5  -8    6.60    3.20
   9  -5   8    2.70    4.00
   9   5   9    5.30    4.50
   9  -5   9    3.60    4.10
  -9  -6  12    1.30    3.80
  -9  -6  11    6.60    4.20
   9  -6 -11   -0.50    3.60
   9  -6 -10    1.60    3.10
  -9  -6  10    3.10    3.30
  -9  -6   9    1.50    2.80
   9  -6  -9    1.50    3.10
   9  -6  -8   18.20    4.80
  -9  -6   8   16.50    3.60
  -9  -6   8   17.40    4.10
  -9  -6   7   36.40    5.10
  -9  -6   7   41.10    5.00
   9  -6  -7   47.40    6.80
   9  -6  -7   35.90    3.40
  -9  -6   6   98.39    6.50
  -9  -6   6  107.69    7.10
   9  -6  -6  106.39    4.90
   9  -6  -6  108.09    8.00
  -9   6   5   -2.20    2.10
  -9  -6   5    1.10    2.00
  -9  -6   5    0.40    2.10
   9  -6  -5    1.10    1.20
  -9   6   4    6.90    2.90
  -9  -6   4    9.20    2.80
  -9  -6   4   11.70    2.90
   9  -6  -4    8.80    1.80
  -9   6   3   21.00    4.10
   9   6  -3   11.40    2.80
  -9  -6   3   13.30    3.20
   9  -6  -3   17.50    2.50
  -9   6   2   63.19    5.70
   9   6  -2   54.19    4.70
   9  -6  -2   49.30    3.70
  -9  -6   2   56.99    5.20
   9   6  -1   34.40    4.20
  -9   6   1   22.60    4.00
  -9  -6   1   30.00    4.60
   9  -6  -1   28.70    3.30
  -9   6   0   11.20    3.00
   9   6   0    6.20    2.30
  -9  -6   0   10.80    3.10
   9  -6   0   12.70    2.80
  -9   6  -1   55.09    4.90
   9   6   1   56.39    4.70
  -9  -6  -1   50.99    6.10
   9  -6   1   57.89    5.50
  -9   6  -2   25.30    3.80
   9   6   2   19.10    3.50
   9  -6   2   28.10    4.30
  -9  -6  -2   28.60    4.70
   9   6   3    6.20    2.50
  -9   6  -3   12.00    2.80
  -9  -6  -3   10.90    3.30
   9  -6   3   10.40    3.20
  -9   6  -4  140.19    7.10
   9   6   4  140.49    7.90
   9  -6   4  129.79    8.50
  -9  -6  -4  132.59    8.70
   9   6   5   14.70    3.70
  -9  -6  -5   11.50    3.90
   9  -6   5   11.50    4.00
   9   6   6   -2.90    2.00
   9  -6   6    1.80    3.20
  -9  -6  -6   -0.80    2.10
   9   6   7    7.20    3.80
   9  -6   7   18.70    5.20
  -9  -6  -7   10.70    3.80
   9   6   8   28.80    5.90
   9  -6   8   16.00    5.50
  -9  -6  -8   16.30    4.20
   9   6   9   13.30    5.00
   9  -6   9   13.70    6.10
   9  -7 -12   -1.50    4.00
  -9  -7  12   -2.60    3.60
   9  -7 -11    8.30    4.80
  -9  -7  11    7.90    4.40
  -9  -7  10   17.20    5.00
   9  -7 -10   30.80    6.40
  -9  -7   9    8.30    3.40
   9  -7  -9    5.50    3.80
  -9  -7   8    1.50    2.20
  -9  -7   8    3.80    2.70
   9  -7  -8    1.50    3.10
  -9  -7   7    2.50    2.50
  -9  -7   7   -2.70    1.60
   9  -7  -7    7.60    3.70
  -9  -7   6    4.60    2.60
   9  -7  -6   13.30    1.90
  -9  -7   6    7.60    2.50
   9  -7  -6    6.60    3.60
   9  -7  -5   36.60    2.80
  -9  -7   5   29.80    4.40
  -9  -7   5   37.70    4.90
  -9   7   4    0.10    2.00
  -9  -7   4   -1.10    1.50
  -9  -7   4    1.50    2.10
   9  -7  -4    0.20    1.00
  -9   7   3    7.10    3.00
   9   7  -3    4.60    2.30
   9  -7  -3    7.70    1.80
  -9  -7   3    6.90    2.80
  -9   7   2  238.48   11.20
   9   7  -2  237.58    9.80
  -9  -7   2  248.08   11.10
   9  -7  -2  236.38    8.00
   9   7  -1   20.00    3.60
  -9   7   1   20.00    3.90
  -9  -7   1   22.10    4.10
   9  -7  -1   20.00    2.90
   9   7   0    2.90    1.90
  -9   7   0    2.60    2.00
   9  -7   0    1.50    1.90
  -9  -7   0    1.00    1.80
   9   7   1   29.80    4.30
  -9   7  -1   40.20    4.90
  -9  -7  -1   36.70    5.40
   9  -7   1   34.10    4.30
   9   7   2    1.40    2.00
  -9   7  -2    1.20    2.00
   9  -7   2    2.80    2.60
  -9  -7  -2    6.10    2.80
  -9   7  -3   11.50    2.80
   9   7   3    7.30    2.60
   9  -7   3    8.40    3.00
  -9  -7  -3   11.20    3.50
   9   7   4   22.30    4.10
  -9   7  -4   11.80    2.80
  -9  -7  -4   12.30    3.80
   9  -7   4   22.80    4.70
   9   7   5   10.50    3.50
  -9  -7  -5    9.70    3.80
   9  -7   5    5.10    3.50
   9   7   6    2.00    2.60
   9  -7   6    5.50    3.80
  -9  -7  -6    0.00    2.40
   9   7   7    5.00    3.50
  -9  -7  -7   -5.00    1.70
   9  -7   7    0.50    3.30
   9   7   8   -1.30    2.70
  -9  -7  -8   -2.50    2.10
   9  -7   8   -1.40    3.70
   9   7   9    3.50    3.80
   9  -7   9    2.10    4.30
   9  -8 -12    1.40    4.70
  -9  -8  12   -1.90    3.00
   9  -8 -11    4.70    4.30
  -9  -8  11    3.50    3.60
  -9  -8  10    2.10    3.30
   9  -8 -10   -1.20    3.90
  -9  -8   9   -0.30    2.50
   9  -8  -9    2.10    3.70
  -9  -8   8    4.50    3.00
   9  -8  -8   10.80    4.30
  -9  -8   8    8.90    2.90
  -9  -8   7   19.10    3.70
   9  -8  -7    3.60    3.30
  -9  -8   7   13.10    3.70
  -9  -8   6   36.30    4.90
   9  -8  -6   31.50    5.80
  -9  -8   6   25.50    4.40
  -9  -8   5    5.60    2.80
   9  -8  -5    5.30    1.50
  -9  -8   5    6.60    2.50
   9  -8  -5    8.20    3.30
  -9  -8   4  169.48    8.90
   9  -8  -4  167.48    5.80
  -9  -8   4  173.08    8.70
  -9   8   3   37.60    5.50
   9   8  -3   43.70    5.00
   9  -8  -3   54.39    3.40
  -9  -8   3   34.40    4.80
   9   8  -2  158.78    8.00
  -9   8   2  159.48    9.30
   9  -8  -2  154.38    6.20
  -9  -8   2  165.18    9.10
   9   8  -1   83.59    5.90
  -9   8   1   78.79    6.40
   9  -8  -1   76.19    4.90
  -9  -8   1   70.59    6.20
  -9   8   0   81.59    6.20
   9   8   0   70.39    5.40
   9  -8   0   79.49    5.20
  -9  -8   0   86.59    6.90
   9   8   1    1.30    1.80
  -9   8  -1    7.60    2.70
   9  -8   1    4.80    2.50
  -9  -8  -1    5.90    2.90
  -9   8  -2    0.60    1.70
   9   8   2    2.40    1.90
  -9  -8  -2   -2.30    1.20
   9  -8   2    0.30    2.10
   9   8   3   30.30    4.30
  -9   8  -3   33.00    4.40
  -9  -8  -3   33.70    5.40
   9  -8   3   36.10    5.20
   9   8   4    1.40    2.10
  -9   8  -4    0.20    1.50
  -9  -8  -4    0.70    2.30
   9  -8   4    2.90    2.70
   9   8   5   -0.80    2.10
   9  -8   5    0.20    3.30
  -9  -8  -5   -0.80    2.10
   9   8   6    4.80    3.10
  -9  -8  -6    5.30    3.50
   9  -8   6    4.50    3.50
   9   8   7    9.90    3.80
  -9  -8  -7    8.50    3.70
   9  -8   7   11.40    4.90
   9   8   8   -1.50    3.10
  -9  -8  -8   -1.40    2.40
   9  -8   8    1.30    3.80
   9   8   9    4.90    4.20
   9  -8   9   13.70    5.60
   9  -9 -11    5.00    4.70
  -9  -9  11   -3.30    3.10
  -9  -9  10   53.89    7.70
   9  -9 -10   41.50    7.70
   9  -9  -9    1.80    3.30
  -9  -9   9   -1.90    2.70
   9  -9  -8    5.60    4.10
  -9  -9   8    3.90    3.10
  -9  -9   7    0.70    2.70
  -9  -9   7   -2.10    1.60
   9  -9  -7   -5.90    2.20
  -9  -9   6    2.00    1.90
  -9  -9   6    2.40    2.60
   9  -9  -6   10.10    4.10
  -9  -9   5   53.79    5.90
  -9  -9   5   53.79    6.10
   9  -9  -5   65.59    7.80
  -9  -9   4   20.90    4.00
   9  -9  -4   22.70    2.50
   9  -9  -4   21.10    4.90
  -9  -9   4   20.70    3.90
   9   9  -3   -0.10    2.20
   9  -9  -3    1.40    1.30
  -9  -9   3   -1.70    1.60
   9  -9  -3   -1.40    2.30
  -9   9   2   81.79    7.00
   9   9  -2   98.89    6.40
   9  -9  -2   84.49    4.70
  -9  -9   2   84.59    6.80
  -9   9   1    4.00    2.30
   9   9  -1    4.70    2.30
  -9  -9   1    3.30    2.50
   9  -9  -1    5.50    2.00
  -9   9   0   -1.00    1.60
   9   9   0    2.50    1.90
  -9  -9   0   -0.90    2.10
   9  -9   0    1.40    2.00
  -9   9  -1   -2.10    1.30
   9   9   1   -0.50    1.60
   9  -9   1   -1.10    1.90
  -9  -9  -1    0.00    1.60
  -9   9  -2    5.10    2.60
   9   9   2    4.40    2.10
   9  -9   2    1.80    2.20
  -9  -9  -2    0.40    2.30
  -9   9  -3    0.10    1.60
   9   9   3    1.80    1.80
  -9  -9  -3   -0.50    2.30
   9  -9   3    8.10    3.10
   9   9   4   72.09    6.00
  -9   9  -4   78.09    5.60
   9  -9   4   69.19    7.60
  -9  -9  -4   70.69    8.20
   9   9   5    6.60    2.90
  -9  -9  -5   16.10    4.30
   9  -9   5    1.80    3.20
   9   9   6   25.20    4.70
   9  -9   6   20.20    5.40
  -9  -9  -6   25.70    5.80
   9   9   7   14.30    4.40
   9  -9   7    1.30    3.90
  -9  -9  -7   15.40    4.60
   9   9   8    5.00    3.50
   9  -9   8    4.90    4.50
  -9  -9  -8    2.10    3.20
   9   9   9   35.70    6.90
   9  -9   9   30.20    7.40
  -9  -9  -9   13.90    5.00
  -9 -10  11    1.80    3.70
   9 -10 -11    8.20    5.30
   9 -10 -10   26.00    6.60
  -9 -10  10   24.50    5.60
  -9 -10   9    0.80    2.90
   9 -10  -9   -1.10    3.50
  -9 -10   8    4.90    3.30
   9 -10  -8    2.70    3.70
  -9 -10   7    6.10    3.20
   9 -10  -7    1.50    3.30
  -9 -10   7    1.60    2.10
   9 -10  -6   17.00    5.10
  -9 -10   6   17.60    4.00
  -9 -10   6   20.30    3.90
  -9 -10   5    5.70    2.90
   9 -10  -5    5.70    3.70
  -9 -10   5    2.20    2.20
   9 -10  -4   -0.60    2.70
  -9 -10   4   -4.90    1.60
  -9 -10   4    1.80    2.20
   9  10  -3   41.30    5.00
   9 -10  -3   58.59    3.60
  -9 -10   3   56.39    6.60
   9 -10  -3   69.29    7.90
   9  10  -2  123.09    7.30
   9 -10  -2   90.49    7.70
   9 -10  -2   97.19    5.10
  -9 -10   2  106.19    7.70
   9  10  -1   17.60    3.50
   9 -10  -1   16.90    4.20
  -9 -10   1   13.30    3.70
   9 -10  -1   23.90    3.30
   9  10   0   24.80    4.10
  -9 -10   0   32.80    5.40
   9 -10   0   31.50    4.00
  -9  10  -1    3.90    2.30
   9  10   1    7.80    2.60
  -9 -10  -1    3.40    2.80
   9 -10   1    1.80    2.40
   9  10   2   85.79    6.10
  -9  10  -2   98.99    6.70
   9 -10   2   96.99    6.90
  -9 -10  -2   87.39    7.80
   9  10   3   16.00    3.40
   9 -10   3   12.60    4.00
  -9 -10  -3   24.00    4.90
   9  10   4   -1.40    2.00
   9 -10   4    0.20    2.60
  -9 -10  -4   -3.70    2.00
   9  10   5   10.50    3.40
  -9 -10  -5   17.00    4.60
   9 -10   5   12.20    4.60
   9  10   6   33.90    5.60
  -9 -10  -6   24.30    5.60
   9 -10   6   31.60    6.40
   9  10   7   10.40    3.80
  -9 -10  -7    6.50    3.70
   9 -10   7    4.30    4.20
   9  10   8   18.90    4.90
   9 -10   8   16.10    5.70
  -9 -10  -8    6.10    3.80
  -9 -11  11   -2.60    3.20
   9 -11 -11    6.30    5.10
   9 -11 -10   27.00    7.00
  -9 -11  10   21.40    5.90
   9 -11  -9    8.60    4.60
  -9 -11   9   -1.40    2.80
  -9 -11   8    3.20    3.40
   9 -11  -8   15.40    5.50
  -9 -11   7   -3.80    2.20
   9 -11  -7   -4.30    2.70
  -9 -11   7    0.70    2.00
  -9 -11   6    2.40    2.00
   9 -11  -6   -0.20    3.20
  -9 -11   6    0.10    2.50
  -9 -11   5    1.10    2.20
  -9 -11   5    2.00    2.00
   9 -11  -5    0.60    3.50
   9 -11  -4   10.00    4.00
  -9 -11   4   27.60    4.40
  -9 -11   4   25.50    4.40
   9  11  -3   -0.30    1.90
   9 -11  -3   -0.50    2.70
  -9 -11   3    0.20    2.00
   9  11  -2   -0.90    1.90
  -9 -11   2    2.30    2.40
   9 -11  -2    2.00    1.60
   9 -11  -2    2.00    2.80
   9  11  -1    3.10    2.10
   9 -11  -1    2.50    1.90
  -9 -11   1    1.10    2.60
   9 -11  -1    1.60    2.70
   9  11   0    1.20    1.90
   9 -11   0   -1.50    2.20
   9 -11   0    1.80    2.10
  -9 -11   0   -2.20    2.20
   9  11   1   21.10    3.90
  -9 -11  -1   19.00    4.60
   9 -11   1   10.60    3.10
   9 -11   1   20.40    4.40
   9  11   2   -0.20    1.70
   9 -11   2    1.90    2.40
  -9 -11  -2    4.80    3.50
   9 -11   2    1.60    2.60
   9  11   3   -2.10    1.40
  -9 -11  -3    0.90    3.10
   9 -11   3   -1.20    1.90
   9 -11   3    5.10    3.00
   9  11   4    1.20    2.20
  -9 -11  -4   -0.80    2.50
   9 -11   4   -1.00    2.90
   9  11   5   18.30    4.00
   9 -11   5   18.50    5.00
  -9 -11  -5   14.20    4.50
   9  11   6   -1.20    2.60
   9 -11   6    2.10    3.30
  -9 -11  -6    0.50    3.20
   9  11   7    1.90    3.00
   9 -11   7   -4.30    3.00
  -9 -11  -7   -1.70    2.80
   9  11   8   -3.60    3.10
  -9 -11  -8   -0.30    3.20
   9 -11   8   -2.00    3.70
   9 -12 -11   16.20    6.70
  -9 -12  11   19.60    5.80
   9 -12 -10    1.00    4.40
  -9 -12  10    7.20    4.10
   9 -12  -9   63.89    9.80
  -9 -12   9   64.49    8.40
   9 -12  -8    1.40    3.70
  -9 -12   8    6.60    3.60
  -9 -12   7    0.20    2.60
   9 -12  -7    4.40    3.90
  -9 -12   7   -1.60    3.20
   9 -12  -6   18.80    5.40
  -9 -12   6   21.40    4.20
  -9 -12   6   11.90    3.70
  -9 -12   5    6.20    3.10
   9 -12  -5   12.50    4.60
  -9 -12   5    6.40    3.00
  -9 -12   4    0.00    2.40
  -9 -12   4   -1.40    1.70
   9 -12  -4    0.80    2.70
   9  12  -3   -0.10    2.00
   9 -12  -3   -0.70    2.90
  -9 -12   3    4.80    2.60
   9  12  -2   42.20    5.30
   9 -12  -2   33.40    5.80
  -9 -12   2   51.59    6.60
   9  12  -1   -1.10    1.90
   9 -12  -1   -1.30    2.50
   9 -12  -1   -3.00    1.40
  -9 -12   1    1.60    2.50
   9  12   0   28.00    4.60
  -9 -12   0   27.00    5.30
   9 -12   0   32.30    4.40
   9 -12   0   17.00    4.20
   9  12   1   21.30    3.70
   9 -12   1   16.80    4.00
   9 -12   1   13.50    3.50
  -9 -12  -1   25.60    5.10
   9  12   2    0.90    1.90
   9 -12   2    1.10    2.20
  -9 -12  -2   -4.40    2.00
   9 -12   2    7.40    2.80
   9  12   3   29.00    4.60
   9 -12   3   19.60    3.90
   9 -12   3   18.20    4.50
  -9 -12  -3   20.10    5.00
   9  12   4    6.30    2.80
  -9 -12  -4    9.90    4.30
   9 -12   4   12.30    4.50
   9  12   5    3.60    2.80
   9 -12   5    1.30    3.50
  -9 -12  -5   -4.60    2.40
   9  12   6   -2.00    2.60
   9 -12   6   -0.70    3.00
  -9 -12  -6    4.00    4.00
   9  12   7   -0.10    3.10
  -9 -12  -7    2.90    3.60
   9 -12   7   -1.60    3.40
   9 -12   8    3.20    4.10
  -9 -12  -8    8.90    4.90
  -9 -13  10   19.80    5.70
   9 -13 -10   10.20    5.80
   9 -13  -9   37.50    8.20
  -9 -13   9   44.90    7.60
  -9 -13   8    2.00    3.60
   9 -13  -8    3.00    3.80
   9 -13  -7   -2.70    3.20
  -9 -13   7    1.30    2.70
  -9 -13   6    3.30    2.80
  -9 -13   6    6.10    2.80
   9 -13  -6    2.60    3.60
  -9 -13   5   37.10    5.60
  -9 -13   5   41.60    5.90
   9 -13  -5   36.10    6.90
   9 -13  -4    0.10    3.40
  -9 -13   4    2.70    2.40
   9  13  -3   49.50    6.00
   9 -13  -3   53.69    7.50
  -9 -13   3   53.29    6.70
   9  13  -2   54.19    5.90
   9 -13  -2   76.09    8.70
  -9 -13   2   68.19    7.70
   9  13  -1   16.90    3.70
  -9 -13   1   17.50    4.50
   9 -13  -1   14.70    4.30
   9  13   0   18.30    3.70
   9 -13   0   15.60    4.20
   9 -13   0   30.50    4.50
  -9 -13   0   16.00    4.50
   9  13   1    6.50    2.60
   9 -13   1    9.60    3.70
  -9 -13  -1    9.80    4.10
   9 -13   1    3.40    2.70
   9  13   2   -0.70    2.10
   9 -13   2    2.20    2.60
   9 -13   2    2.00    2.60
  -9 -13  -2    1.30    2.90
   9  13   3   26.70    4.50
   9 -13   3   29.40    5.60
  -9 -13  -3   24.20    5.70
   9 -13   3   24.40    4.40
   9  13   4    5.60    2.70
  -9 -13  -4    2.80    3.60
   9 -13   4   -0.20    3.20
   9  13   5   -1.40    2.30
   9 -13   5    0.20    2.90
  -9 -13  -5   -3.70    2.70
   9  13   6   24.00    4.90
   9 -13   6   15.30    5.70
  -9 -13  -6   16.70    5.50
  -9 -13  -7    0.30    3.60
   9 -13   7   -3.60    3.20
  -9 -14  10   -0.20    3.60
   9 -14 -10    1.10    5.80
   9 -14  -9   -1.90    4.10
  -9 -14   9    2.10    4.00
  -9 -14   8    1.00    3.20
   9 -14  -8   -1.00    4.20
   9 -14  -7   24.20    6.50
  -9 -14   7   39.60    6.30
  -9 -14   6    2.80    2.50
  -9 -14   6    1.20    2.50
   9 -14  -6    5.20    4.50
  -9 -14   5   10.40    3.50
  -9 -14   5    8.20    3.40
   9 -14  -5   -0.70    3.80
  -9 -14   4   -0.40    2.50
   9 -14  -4    0.00    3.40
   9  14  -3   34.00    5.20
  -9 -14   3   43.50    6.30
   9 -14  -3   43.90    7.30
   9  14  -2    3.00    2.70
  -9 -14   2   -0.10    2.60
   9 -14  -2   -1.30    2.70
   9  14  -1   17.70    3.80
   9 -14  -1   29.20    5.60
  -9 -14   1   32.90    6.00
   9  14   0    2.40    2.20
  -9 -14   0   -1.60    2.60
   9 -14   0    1.80    3.70
   9 -14   0   -1.60    2.00
   9  14   1    1.50    2.10
  -9 -14  -1    3.30    3.70
   9 -14   1    1.80    2.90
   9 -14   1    7.60    3.20
   9  14   2   27.00    4.40
   9 -14   2   29.40    5.00
   9 -14   2   29.90    5.20
  -9 -14  -2   27.90    5.90
   9  14   3    1.60    2.20
  -9 -14  -3    6.80    4.10
   9 -14   3    0.30    2.90
   9  14   4    4.40    2.60
  -9 -14  -4    8.30    4.50
   9 -14   4    4.40    3.70
   9  14   5   34.00    5.40
   9 -14   5   22.80    5.90
  -9 -14  -5   26.40    6.40
  -9 -14  -6   -3.30    3.20
   9 -14   6    6.30    4.40
   9 -14   7    2.90    4.50
  -9 -14  -7    6.60    4.60
   9 -15  -9    9.60    6.30
  -9 -15   9    6.60    4.00
  -9 -15   8    3.10    3.40
   9 -15  -8    4.40    4.80
   9 -15  -7   37.10    8.10
  -9 -15   7   35.30    6.30
  -9 -15   6   -3.20    2.10
  -9 -15   6    2.50    2.90
   9 -15  -6    2.80    4.30
  -9 -15   5    2.50    3.10
   9 -15  -5   -1.80    3.50
  -9 -15   5   -0.10    2.50
   9  15  -4   10.40    3.60
   9 -15  -4    4.00    3.90
  -9 -15   4    3.60    2.50
   9  15  -3    2.60    2.40
  -9 -15   3    6.10    3.50
   9 -15  -3   10.30    4.50
   9  15  -2   13.90    3.60
  -9 -15   2    9.00    4.00
   9 -15  -2    9.30    4.20
   9  15  -1   21.30    4.30
   9 -15  -1   18.90    4.90
  -9 -15   1    8.80    3.90
   9  15   0    0.90    2.10
  -9 -15   0    0.70    2.80
   9 -15   0    3.80    3.10
   9  15   1   11.10    3.30
  -9 -15  -1   15.70    4.90
   9 -15   1    9.10    3.40
   9 -15   1    8.90    3.60
   9  15   2   22.60    4.10
  -9 -15  -2   15.20    5.20
   9 -15   2   21.20    4.70
   9 -15   2   30.50    5.30
   9  15   3   53.59    6.20
  -9 -15  -3   49.20    8.10
   9 -15   3   52.99    7.00
   9  15   4    2.60    2.70
   9 -15   4    0.60    3.20
  -9 -15  -4    2.10    3.70
   9 -15   5    3.00    4.00
  -9 -15  -5   -3.30    3.00
   9 -15   6   12.40    5.20
  -9 -15  -6    8.50    5.60
   9 -16  -9   23.60    7.60
  -9 -16   9   23.90    5.90
  -9 -16   8   13.20    4.80
   9 -16  -8   11.50    6.60
   9 -16  -7    1.50    4.80
  -9 -16   7    6.10    3.70
  -9 -16   6   14.70    4.40
   9 -16  -6   23.60    6.90
  -9 -16   5    9.40    3.70
  -9 -16   5    9.30    3.60
   9 -16  -5   10.40    5.00
   9  16  -4   32.50    5.50
  -9 -16   4   34.10    5.90
   9 -16  -4   42.80    7.90
   9  16  -3   12.90    3.60
  -9 -16   3   12.60    4.40
   9 -16  -3   21.20    5.70
   9  16  -2   -0.40    2.00
  -9 -16   2    0.10    2.60
   9 -16  -2   -3.60    2.90
   9  16  -1   15.50    3.90
  -9 -16   1    9.40    4.00
   9 -16  -1   12.50    4.40
   9  16   0    1.30    2.30
   9 -16   0    5.90    4.00
  -9 -16   0    0.70    3.40
   9  16   1    0.50    2.30
   9 -16   1    3.10    3.20
  -9 -16  -1    0.20    3.20
   9  16   2    8.80    3.00
  -9 -16  -2    5.30    3.60
   9 -16   2    3.40    3.90
   9 -16   2    9.70    3.80
   9  16   3    3.50    2.80
  -9 -16  -3    6.40    4.10
   9 -16   3    6.50    3.80
  -9 -16  -4    4.10    4.60
   9 -16   4    4.90    3.80
   9 -16   5    0.50    3.40
  -9 -16  -5   -0.60    3.50
   9 -16   6    3.60    4.30
  -9 -16  -6    8.10    5.10
   9 -17  -8    7.70    6.10
  -9 -17   8    4.80    4.10
   9 -17  -7    0.10    4.70
  -9 -17   7   10.50    4.30
  -9 -17   6    0.20    3.00
   9 -17  -6   -2.30    4.00
   9 -17  -5   11.00    5.50
  -9 -17   5    0.20    3.00
  -9 -17   5   -3.20    2.40
   9  17  -4   -1.70    2.60
   9 -17  -4    0.40    3.80
  -9 -17   4   -0.20    2.90
   9  17  -3   10.50    3.80
  -9 -17   3    9.10    3.80
   9 -17  -3   17.20    5.70
   9  17  -2    3.80    2.70
   9 -17  -2    1.90    3.70
  -9 -17   2   -4.30    2.70
   9  17  -1    9.60    3.60
  -9 -17   1   13.80    4.90
   9 -17  -1    9.90    4.60
   9  17   0    0.90    2.30
   9 -17   0    3.50    3.90
  -9 -17   0    5.90    4.20
   9  17   1    5.30    2.90
   9 -17   1    4.10    3.30
  -9 -17  -1   -0.50    3.40
   9  17   2   12.10    3.50
  -9 -17  -2   11.70    5.00
  -9 -17  -3    2.10    3.80
   9 -17   3    6.60    6.30
   9 -17   4   -1.80    2.90
  -9 -17  -4   10.50    5.20
   9 -17   5   -0.80    3.60
  -9 -17  -5    0.90    4.10
   9 -18  -7   14.50    6.60
  -9 -18   7   19.20    5.50
  -9 -18   6   39.70    6.70
   9 -18  -6   33.50    8.30
   9 -18  -5    6.90    5.20
  -9 -18   5    8.90    4.20
   9  18  -4    1.40    2.80
   9 -18  -4    6.60    5.00
  -9 -18   4    3.30    3.00
   9  18  -3    5.50    3.30
  -9 -18   3    4.80    3.50
   9 -18  -3   -0.80    3.90
   9  18  -2    4.90    2.90
  -9 -18   2    6.60    4.00
   9 -18  -2    2.50    3.90
   9  18  -1   -2.40    2.30
  -9 -18   1   -2.20    2.90
   9 -18  -1    1.30    3.60
   9  18   0    5.10    2.90
  -9 -18   0    4.60    4.10
   9 -18   0    8.80    4.90
   9  18   1   17.20    4.20
   9 -18   1   14.40    5.30
  -9 -18  -1   17.60    5.70
  -9 -18  -2   17.80    5.80
  -9 -18  -3   21.80    6.70
  -9 -18  -4    2.20    4.20
  -9 -19   6    3.00    4.00
   9 -19  -6    5.80    5.80
   9  19  -5   13.90    4.80
   9 -19  -5   21.80    7.20
   9  19  -4    5.20    3.50
   9 -19  -4    4.80    5.20
  -9 -19   4    7.00    3.70
   9  19  -3   19.80    4.40
   9 -19  -3   25.60    7.40
  -9 -19   3   19.40    5.40
   9  19  -2   23.00    5.00
   9 -19  -2   25.70    6.70
  -9 -19   2   27.20    6.30
   9  19  -1    3.50    3.00
   9 -19  -1    7.50    5.10
  -9 -19   1    1.00    3.60
   9  19   0   -1.20    2.30
   9 -19   0    6.30    5.00
  -9 -19   0   -2.20    3.40
  -9 -19  -1   21.30    6.50
   9 -19   1   29.20    6.80
  -9 -19  -2    7.10    5.20
  -9 -19  -3   -2.20    3.90
   9  20  -5   15.70    4.90
   9 -20  -5   16.20    7.70
   9  20  -4   19.80    4.70
  -9 -20   4   26.10    6.00
   9 -20  -4   19.70    7.00
   9  20  -3   14.40    4.50
   9 -20  -3   22.00    7.00
  -9 -20   3   14.20    5.20
   9  20  -2    0.90    2.70
   9 -20  -2    2.20    4.70
  -9 -20   2   -6.10    2.70
   9  20  -1   30.30    5.30
  -9 -20   1   27.30    6.70
   9 -20  -1   28.50    6.90
  -9 -20   0   -2.20    3.30
   9 -20   0   -1.20    4.10
  -9 -20  -1   -2.90    3.60
  -9 -20  -2   12.30    5.80
   9  21  -3    7.10    3.70
   9 -21  -3    7.20    5.70
  -9 -21   3    0.80    3.30
   9  21  -2    4.40    3.40
   9 -21  -2   12.90    5.90
  -9 -21   2    5.20    4.20
  -9 -21   1    1.60    3.60
   9 -21  -1   10.40    5.60
  -9 -21   0   28.70    7.10
   9 -21   0   32.20    7.30
 -10   0  12   34.90    5.80
 -10   0  11   -4.70    2.20
 -10   0  10    0.10    2.00
  10   0 -10    1.70    2.60
 -10   0   9    0.40    2.20
 -10   0   9   -1.80    2.00
 -10   0   8    0.00    2.10
 -10   0   8   -0.60    1.80
 -10   0   7    0.80    1.70
 -10   0   7    1.20    2.00
 -10   0   6  164.18    9.20
  10   0  -6  157.38    7.60
  10   0  -5    0.70    1.80
 -10   0   5   -0.30    1.80
 -10   0   4   -2.40    1.50
  10   0  -4    1.50    1.70
 -10   0   3   -0.10    1.60
  10   0  -3   -1.10    1.40
 -10   0   2   72.69    5.80
  10   0  -2   66.79    4.70
 -10   0   1    0.80    1.70
  10   0  -1   -3.40    0.90
  10   0   0  199.98    8.50
 -10   0   0  179.98    9.20
  10   0   1    2.60    1.80
 -10   0  -1   -1.50    1.50
  10   0   2  216.48    9.50
 -10   0  -2  198.78    9.80
 -10   0  -3   -0.80    1.50
  10   0   3   -1.20    1.80
  10   0   4    4.40    2.70
 -10   0  -4    3.40    2.10
  10   0   5   -0.90    2.30
 -10   0  -5   -0.10    1.80
 -10   0  -6   14.10    3.40
  10   0   6   10.10    4.00
  10   0   7    1.90    3.40
  10   0   8   21.70    6.00
  10   0   9   -3.90    3.10
 -10   1  12   41.50    8.50
 -10  -1  12   48.80    6.80
 -10   1  11    1.10    2.80
 -10  -1  11    0.70    2.80
 -10   1  10    4.30    2.70
  10   1 -10   10.40    3.80
 -10  -1  10    0.00    2.40
  10  -1 -10    4.90    3.30
 -10   1   9    6.00    2.70
  10  -1  -9   11.40    3.70
 -10  -1   9    4.70    2.80
 -10  -1   9    8.00    3.10
 -10   1   8    6.40    2.60
 -10   1   8    4.80    2.70
 -10  -1   8    3.70    2.30
 -10  -1   8    2.30    2.50
 -10   1   7   20.20    3.40
 -10   1   7   21.10    4.40
 -10  -1   7   18.00    3.40
 -10  -1   7   14.50    3.40
 -10   1   6    6.80    2.90
  10  -1  -6   10.60    2.60
 -10  -1   6    6.60    2.70
  10   1  -5   -0.40    1.60
 -10   1   5    3.50    2.40
 -10  -1   5    1.10    1.90
  10  -1  -5    0.00    1.30
  10   1  -4   66.79    4.90
 -10   1   4   52.39    5.90
  10  -1  -4   61.09    4.40
 -10  -1   4   62.69    5.60
 -10   1   3    6.00    2.70
  10   1  -3   -0.10    1.30
  10  -1  -3    4.20    1.80
 -10  -1   3    1.60    1.90
  10   1  -2  196.38    8.30
 -10   1   2  177.48    9.20
  10  -1  -2  190.48    7.90
 -10  -1   2  179.98    9.10
  10   1  -1   20.20    3.30
 -10   1   1   20.40    3.80
 -10  -1   1   28.50    4.30
  10  -1  -1   18.70    3.10
  10   1   0    1.10    1.50
 -10   1   0    2.00    2.00
 -10  -1   0    0.20    1.80
  10  -1   0    2.60    2.00
 -10   1  -1   10.00    2.70
  10   1   1    6.20    2.20
 -10  -1  -1    9.90    2.80
  10  -1   1   15.00    3.20
  10   1   2   15.30    3.20
 -10   1  -2   12.30    3.10
 -10  -1  -2    8.20    2.80
  10  -1   2    5.60    2.70
 -10   1  -3   32.00    4.70
  10   1   3   33.40    4.90
  10  -1   3   28.80    4.50
 -10  -1  -3   32.10    4.80
 -10   1  -4   44.70    5.40
  10   1   4   36.20    5.30
  10  -1   4   39.00    5.50
 -10  -1  -4   42.60    5.40
  10   1   5    3.50    3.20
 -10   1  -5    1.30    2.10
 -10  -1  -5   -1.30    1.70
  10  -1   5    2.00    2.70
  10   1   6    3.10    3.10
 -10   1  -6    3.60    2.30
 -10  -1  -6    4.10    2.40
  10  -1   6    4.50    3.30
  10   1   7    3.90    3.40
  10  -1   7   15.10    4.70
  10   1   8    2.10    3.70
  10  -1   8    9.20    4.80
  10   1   9    2.90    4.10
  10  -1   9   14.70    5.60
 -10  -2  12   12.30    4.20
 -10   2  11    2.90    2.90
  10  -2 -11    6.20    3.70
 -10  -2  11    2.50    3.20
  10   2 -10   30.20    5.90
 -10   2  10   28.80    4.40
 -10  -2  10   30.80    5.20
  10  -2 -10   22.20    5.20
 -10   2   9    0.80    2.10
 -10  -2   9    0.40    2.40
 -10  -2   9   -0.20    2.40
  10  -2  -9    3.90    2.60
 -10   2   8    0.30    2.50
 -10   2   8    3.60    2.20
 -10  -2   8   -0.70    2.20
 -10  -2   8    0.90    2.10
 -10   2   7    5.00    2.80
 -10  -2   7    6.70    2.70
 -10  -2   7    8.30    2.90
  10  -2  -7    4.00    2.00
 -10   2   6   -2.90    1.70
 -10  -2   6    2.60    2.20
  10  -2  -6   -1.10    1.30
 -10  -2   6    3.00    2.20
  10   2  -5    3.40    2.00
 -10   2   5    4.50    2.60
  10  -2  -5    5.10    1.90
 -10  -2   5    5.60    2.50
 -10   2   4   13.50    3.40
  10   2  -4   14.70    2.90
 -10  -2   4   15.70    3.50
  10  -2  -4   18.10    2.90
  10   2  -3   52.89    4.60
 -10   2   3   64.49    5.60
  10  -2  -3   54.59    4.20
 -10  -2   3   44.50    5.30
 -10   2   2   73.09    5.80
  10   2  -2   66.39    5.00
 -10  -2   2   59.19    5.40
  10  -2  -2   68.79    4.60
  10   2  -1   52.39    4.40
 -10   2   1   59.59    5.30
  10  -2  -1   52.29    4.30
 -10  -2   1   50.59    5.60
  10   2   0   21.00    3.40
 -10   2   0   19.30    3.60
 -10  -2   0   23.40    4.00
  10  -2   0   16.50    3.10
 -10   2  -1   15.00    3.30
  10   2   1   18.70    3.50
  10  -2   1   15.40    3.10
 -10  -2  -1   12.00    3.20
  10   2   2    6.80    2.70
 -10   2  -2    8.60    2.60
 -10  -2  -2   12.10    3.20
  10  -2   2   10.10    2.90
 -10   2  -3   46.70    5.40
  10   2   3   51.29    5.70
  10  -2   3   59.49    6.40
 -10  -2  -3   53.09    6.20
 -10   2  -4    0.70    1.50
  10   2   4    3.80    2.70
  10  -2   4   -2.00    1.80
 -10  -2  -4   -1.20    1.80
  10   2   5   25.30    5.10
 -10   2  -5   25.80    4.10
 -10  -2  -5   24.20    4.40
  10  -2   5   19.60    4.80
  10   2   6   18.00    4.70
 -10   2  -6   34.70    5.60
 -10  -2  -6   26.00    4.70
  10  -2   6   26.10    5.70
  10   2   7   14.50    4.70
 -10  -2  -7   18.50    4.10
  10  -2   7   21.00    5.40
  10   2   8   39.70    7.20
  10  -2   8   43.60    7.60
  10   2   9   -0.50    4.20
  10  -2   9   -1.40    3.70
 -10  -3  12    4.00    3.00
 -10  -3  11    5.60    3.80
  10  -3 -11   12.40    4.50
 -10   3  10    2.80    2.40
  10  -3 -10    2.60    3.00
 -10  -3  10    4.30    3.20
 -10   3   9   -1.00    1.90
 -10  -3   9    3.90    2.70
 -10  -3   9   -0.30    2.40
  10  -3  -9   -0.20    2.50
 -10  -3   8   12.70    3.60
 -10  -3   8    4.70    2.90
 -10   3   7   -0.50    2.10
 -10  -3   7    0.20    1.90
  10  -3  -7   -0.80    1.40
 -10  -3   7   -2.20    1.80
 -10   3   6  136.99    8.90
 -10  -3   6  140.59    8.30
 -10  -3   6  145.29    7.80
  10  -3  -6  146.29    6.60
  10   3  -5   16.70    3.20
 -10   3   5   25.40    4.70
 -10  -3   5   26.40    4.40
  10  -3  -5   21.20    2.90
  10   3  -4   43.00    4.70
 -10   3   4   53.49    6.10
  10  -3  -4   54.69    4.00
 -10  -3   4   48.10    5.50
 -10   3   3  378.36   14.50
  10   3  -3  393.56   12.90
  10  -3  -3  389.26   11.70
 -10  -3   3  381.46   14.20
  10   3  -2    1.40    1.80
 -10   3   2    2.10    2.00
  10  -3  -2    3.30    1.60
 -10  -3   2    0.70    1.90
 -10   3   1   21.10    3.70
  10   3  -1   17.50    3.10
  10  -3  -1   26.90    3.50
 -10  -3   1   26.00    4.30
 -10   3   0   38.50    5.00
  10   3   0   40.60    4.70
 -10  -3   0   42.40    5.40
  10  -3   0   34.20    4.10
  10   3   1   93.89    6.10
 -10   3  -1  101.09    6.60
 -10  -3  -1   80.29    6.40
  10  -3   1   87.89    5.80
  10   3   2   23.70    3.80
 -10   3  -2   25.80    4.20
  10  -3   2   24.40    4.10
 -10  -3  -2   22.40    4.20
 -10   3  -3    2.40    1.90
  10   3   3    3.10    2.00
  10  -3   3   -0.50    2.10
 -10  -3  -3    3.60    2.30
  10   3   4   11.50    3.40
 -10   3  -4   15.80    3.30
 -10  -3  -4    7.40    2.80
  10  -3   4    8.50    3.30
  10   3   5   24.60    4.90
 -10   3  -5   21.60    3.70
  10  -3   5   15.60    4.30
 -10  -3  -5   19.30    4.10
  10   3   6   14.20    4.20
  10  -3   6    4.60    3.40
 -10  -3  -6   10.10    3.30
  10   3   7    1.70    3.40
  10  -3   7   -3.80    3.20
 -10  -3  -7   -1.00    2.00
  10   3   8    9.80    4.20
  10  -3   8   12.90    5.30
  10   3   9   -1.90    3.90
  10  -3   9   -2.90    3.70
 -10  -4  12    5.40    4.00
  10  -4 -11    1.20    3.40
 -10  -4  11    3.50    3.30
 -10  -4  10   -2.00    2.50
  10  -4 -10    3.60    3.60
 -10  -4   9    1.10    2.40
 -10  -4   9   -0.70    2.10
  10  -4  -9    3.20    3.10
 -10  -4   8    1.70    2.60
  10  -4  -8   -0.70    2.40
 -10  -4   8   -0.40    1.80
  10  -4  -8   -0.50    1.50
 -10   4   7    5.30    3.10
 -10  -4   7    4.30    2.50
  10  -4  -7    2.40    1.70
 -10  -4   7    4.10    2.50
 -10   4   6   -3.20    1.80
  10  -4  -6    0.00    1.40
 -10  -4   6    1.40    2.20
 -10  -4   6   -1.30    1.90
 -10   4   5    1.70    2.50
  10  -4  -5    3.20    1.60
 -10  -4   5    5.00    2.40
  10   4  -4   17.90    3.40
 -10   4   4   20.50    4.20
 -10  -4   4   22.40    3.90
  10  -4  -4   23.50    3.10
  10   4  -3   24.70    3.70
 -10   4   3   31.90    4.90
  10  -4  -3   27.10    3.20
 -10  -4   3   20.20    3.90
 -10   4   2   38.90    5.10
  10   4  -2   35.60    4.50
  10  -4  -2   38.00    4.00
 -10  -4   2   35.40    5.00
  10   4  -1   10.80    2.70
 -10   4   1    9.40    2.70
 -10  -4   1    6.90    2.70
  10  -4  -1    8.20    2.30
 -10   4   0  142.39    8.10
  10   4   0  164.68    8.00
  10  -4   0  159.18    7.50
 -10  -4   0  146.99    8.50
 -10   4  -1    4.10    2.10
  10   4   1    2.50    1.90
  10  -4   1    2.80    2.00
 -10  -4  -1    2.20    2.10
  10   4   2  265.17   10.80
 -10   4  -2  282.87   11.40
  10  -4   2  269.57   11.30
 -10  -4  -2  277.97   12.40
 -10   4  -3  123.79    7.20
  10   4   3  127.09    7.70
 -10  -4  -3  121.49    8.20
  10  -4   3  125.29    7.90
 -10   4  -4   -1.00    1.50
  10   4   4    0.70    2.30
 -10  -4  -4   -1.30    1.70
  10  -4   4    2.70    2.90
  10   4   5   63.29    7.10
 -10   4  -5   53.79    4.80
 -10  -4  -5   48.10    6.10
  10  -4   5   56.89    7.20
  10   4   6    1.30    2.70
  10  -4   6    2.60    3.60
 -10  -4  -6    2.40    2.30
  10   4   7   11.00    4.00
 -10  -4  -7   20.30    4.50
  10  -4   7   23.10    5.50
  10   4   8   24.00    5.70
  10  -4   8   27.50    6.30
  10   4   9    1.20    4.20
  10  -4   9    7.50    5.50
 -10  -5  12    2.00    3.00
 -10  -5  11   -0.70    3.10
  10  -5 -11   12.10    4.60
  10  -5 -10    7.00    3.80
 -10  -5  10   -2.50    2.70
  10  -5  -9   -2.90    2.70
 -10  -5   9    6.00    3.50
 -10  -5   9    0.70    2.30
 -10  -5   8    2.50    2.60
 -10  -5   8    1.00    2.30
  10  -5  -8    4.70    2.00
  10  -5  -8   -0.60    2.50
  10  -5  -7    1.70    1.50
 -10  -5   7   -0.10    2.50
 -10  -5   7    0.50    1.80
 -10   5   6  109.19    8.30
 -10  -5   6  112.09    7.20
 -10  -5   6  104.49    7.20
  10  -5  -6  107.19    5.40
 -10   5   5  164.68    9.90
 -10  -5   5  159.38    8.30
 -10  -5   5  177.48    9.10
  10  -5  -5  164.98    6.60
 -10   5   4   37.10    5.40
  10   5  -4   38.00    4.60
 -10  -5   4   46.60    5.50
  10  -5  -4   41.70    3.40
  10   5  -3    4.90    2.40
 -10   5   3    7.70    2.90
 -10  -5   3    7.20    2.70
  10  -5  -3    5.20    1.70
 -10   5   2   66.99    6.00
  10   5  -2   81.19    5.70
  10  -5  -2   89.29    5.00
 -10  -5   2   74.59    6.20
 -10   5   1   68.89    6.00
  10   5  -1   80.49    5.60
  10  -5  -1   86.19    5.20
 -10  -5   1   78.89    6.40
  10   5   0    0.50    1.70
 -10   5   0    1.70    1.90
  10  -5   0    3.00    2.00
 -10  -5   0    0.30    1.80
  10   5   1   43.30    5.20
 -10   5  -1   36.20    4.80
 -10  -5  -1   27.90    4.80
  10  -5   1   34.00    4.50
 -10   5  -2   66.49    5.40
  10   5   2   71.99    5.60
  10  -5   2   71.79    6.10
 -10  -5  -2   70.99    6.40
 -10   5  -3    5.00    2.30
  10   5   3    3.40    2.50
  10  -5   3    9.00    3.40
 -10  -5  -3    5.40    2.90
  10   5   4   26.40    4.40
 -10   5  -4   26.90    4.10
 -10  -5  -4   21.80    4.40
  10  -5   4   25.20    5.00
  10   5   5    7.80    3.20
 -10   5  -5   10.50    2.90
 -10  -5  -5    9.90    3.40
  10  -5   5    3.50    3.10
  10   5   6    4.10    3.10
 -10  -5  -6    7.20    3.40
  10  -5   6    4.30    3.40
  10   5   7    2.70    3.30
 -10  -5  -7    1.30    2.20
  10  -5   7   -0.10    3.40
  10   5   8   11.80    4.50
  10  -5   8   11.50    4.80
 -10  -5  -8   12.00    6.20
  10   5   9    3.60    4.10
  10  -5   9   -2.10    4.10
 -10  -6  12    9.20    4.20
  10  -6 -12    4.50    4.40
  10  -6 -11   17.40    5.30
 -10  -6  11   14.50    4.80
 -10  -6  10   -3.10    2.70
  10  -6 -10    1.10    3.40
  10  -6  -9    2.80    3.50
 -10  -6   9    3.60    3.20
 -10  -6   9    9.10    5.60
 -10  -6   8   13.00    3.50
  10  -6  -8    8.70    4.00
 -10  -6   8    2.30    2.90
 -10  -6   7    0.70    2.30
 -10  -6   7   -1.60    2.00
  10  -6  -7    0.40    1.30
  10  -6  -7   -0.90    2.40
 -10   6   6   72.29    8.10
 -10  -6   6   87.59    6.40
  10  -6  -6   84.49    4.60
 -10  -6   6   73.79    6.20
 -10   6   5   -1.20    2.10
  10  -6  -5    5.90    1.70
 -10  -6   5    2.20    2.50
 -10  -6   5    6.00    2.50
  10   6  -4  134.49    7.60
 -10   6   4  116.69    8.30
 -10  -6   4  109.49    7.30
  10  -6  -4  116.89    5.40
 -10   6   3    1.60    2.40
  10   6  -3    2.40    2.00
  10  -6  -3   -0.90    1.20
 -10  -6   3    2.00    2.20
 -10   6   2   89.79    7.00
  10   6  -2   67.19    5.40
  10  -6  -2   86.29    4.90
 -10  -6   2   93.99    6.90
 -10   6   1    6.30    2.70
  10   6  -1    0.00    1.70
 -10  -6   1    0.10    2.10
  10  -6  -1    7.30    2.20
 -10   6   0   51.39    5.80
  10   6   0   48.40    5.20
 -10  -6   0   40.90    5.60
  10  -6   0   48.00    4.80
 -10   6  -1   17.40    3.50
  10   6   1   26.80    4.20
  10  -6   1   20.80    3.80
 -10  -6  -1   10.40    3.40
  10   6   2    0.40    1.70
 -10   6  -2    0.20    1.80
  10  -6   2   -2.10    2.00
 -10  -6  -2   -1.10    1.90
 -10   6  -3    4.40    2.20
  10   6   3    4.80    2.50
 -10  -6  -3    2.60    2.50
  10  -6   3   -0.30    2.40
 -10   6  -4   11.50    2.80
  10   6   4    7.00    3.00
 -10  -6  -4    6.50    3.00
  10  -6   4    7.30    3.40
  10   6   5    1.40    2.50
  10  -6   5    0.50    2.80
 -10  -6  -5    2.80    2.40
  10   6   6    5.90    3.40
  10  -6   6   -1.40    3.50
 -10  -6  -6    3.20    3.10
  10   6   7   41.00    6.50
  10  -6   7   48.50    7.80
 -10  -6  -7   43.80    6.50
  10   6   8   24.00    5.60
  10  -6   8   28.90    6.80
 -10  -6  -8   35.80    6.20
  10   6   9    7.00    4.60
  10  -6   9   15.90    6.20
  10  -7 -12    6.90    4.70
 -10  -7  12   -1.10    3.10
 -10  -7  11    2.10    3.70
  10  -7 -11    5.80    4.30
  10  -7 -10    1.20    4.10
 -10  -7  10   -1.20    3.10
  10  -7  -9   19.00    5.20
 -10  -7   9   18.70    4.70
  10  -7  -8   21.20    5.30
 -10  -7   8   30.60    4.60
 -10  -7   8   28.20    5.20
 -10  -7   7   31.70    4.70
 -10  -7   7   20.80    4.10
  10  -7  -7   20.00    5.00
 -10  -7   6   -0.50    1.80
 -10  -7   6   -0.10    2.20
  10  -7  -6   -0.80    1.20
  10  -7  -6   -0.10    2.80
 -10   7   5   31.50    5.60
 -10  -7   5   33.20    4.80
  10  -7  -5   39.10    3.00
 -10  -7   5   32.60    4.80
 -10   7   4   13.00    3.90
  10   7  -4   11.50    3.00
 -10  -7   4   12.80    3.40
  10  -7  -4   12.90    2.30
 -10   7   3   99.09    7.70
  10   7  -3  100.29    6.60
  10  -7  -3  100.09    5.10
 -10  -7   3   97.49    7.10
 -10   7   2   68.19    7.10
  10   7  -2   69.09    5.60
  10  -7  -2   65.69    4.30
 -10  -7   2   72.49    6.30
 -10   7   1    2.30    2.20
  10   7  -1    1.40    1.90
  10  -7  -1    0.60    1.60
 -10  -7   1    0.60    2.20
 -10   7   0   -0.40    1.70
  10   7   0   -0.40    1.50
  10  -7   0   -0.30    1.80
 -10  -7   0    2.50    2.50
  10   7   1    5.50    2.50
 -10   7  -1    8.10    2.70
 -10  -7  -1    6.10    3.00
  10  -7   1   12.50    3.10
  10   7   2    8.30    2.70
 -10   7  -2    5.10    2.30
 -10  -7  -2    8.30    3.20
  10  -7   2    9.30    3.10
 -10   7  -3   14.80    3.30
  10   7   3   10.50    3.10
  10  -7   3   16.50    4.00
 -10  -7  -3    9.10    3.40
 -10   7  -4   68.39    5.40
  10   7   4   68.09    5.90
 -10  -7  -4   58.79    7.10
  10  -7   4   74.69    7.80
  10   7   5   61.49    7.20
  10  -7   5   60.49    7.70
 -10  -7  -5   58.99    7.30
  10   7   6   13.90    4.30
  10  -7   6   12.00    4.60
 -10  -7  -6    3.80    2.80
  10   7   7   47.30    6.90
 -10  -7  -7   39.50    6.30
  10  -7   7   35.30    7.00
  10   7   8   31.90    6.40
 -10  -7  -8   25.90    5.70
  10  -7   8   36.00    7.40
  10   7   9   -2.40    3.50
  10  -7   9   -0.50    4.70
 -10  -8  11    1.20    3.50
  10  -8 -11    5.20    4.60
  10  -8 -10   20.20    5.60
 -10  -8  10    9.80    4.60
 -10  -8   9   -2.70    2.30
  10  -8  -9    7.20    4.60
 -10  -8   8   10.60    4.10
  10  -8  -8   12.10    4.70
 -10  -8   8    8.10    2.90
 -10  -8   7   -1.60    2.20
  10  -8  -7    3.50    3.40
 -10  -8   7    0.20    2.10
 -10  -8   6    3.60    2.20
  10  -8  -6    5.50    3.40
 -10  -8   6    6.90    2.90
  10  -8  -5   -3.50    1.30
  10  -8  -5    1.40    2.50
 -10  -8   5   -0.50    2.50
 -10  -8   5    2.30    2.20
 -10   8   4   20.50    4.70
  10   8  -4   16.80    3.70
 -10  -8   4   13.80    3.60
  10  -8  -4   20.30    2.60
  10   8  -3   40.40    5.10
 -10   8   3   34.90    5.70
  10  -8  -3   36.20    3.50
 -10  -8   3   41.70    5.70
  10   8  -2  389.36   13.90
 -10   8   2  406.36   15.80
  10  -8  -2  387.36   11.50
 -10  -8   2  385.36   15.30
  10   8  -1   71.19    5.90
 -10   8   1   56.39    6.50
  10  -8  -1   59.89    4.60
 -10  -8   1   56.59    6.60
  10   8   0    4.20    2.30
 -10   8   0    0.00    1.80
  10  -8   0    2.50    2.00
 -10  -8   0    4.70    2.90
 -10   8  -1  129.99    8.00
  10   8   1  138.49    7.80
  10  -8   1  125.49    7.50
 -10  -8  -1  111.89    8.10
  10   8   2   29.80    4.40
 -10   8  -2   27.90    4.40
  10  -8   2   27.70    4.80
 -10  -8  -2   23.80    4.60
 -10   8  -3    7.10    2.60
  10   8   3    9.10    2.90
 -10  -8  -3    9.40    3.70
  10  -8   3    4.40    2.90
  10   8   4    0.90    2.00
 -10   8  -4   -0.80    1.60
 -10  -8  -4    2.90    2.80
  10  -8   4    1.10    3.10
  10   8   5   28.80    5.10
  10  -8   5   24.50    5.40
 -10  -8  -5   11.30    4.00
  10   8   6   13.90    4.20
  10  -8   6   14.10    4.90
 -10  -8  -6   17.60    4.90
  10   8   7    2.00    3.40
  10  -8   7   -3.20    3.60
 -10  -8  -7    0.00    2.60
  10   8   8    1.30    3.60
  10  -8   8    1.80    4.50
 -10  -8  -8    0.30    2.90
  10  -9 -11    4.30    4.60
 -10  -9  11   -1.30    3.10
  10  -9 -10   10.90    5.00
 -10  -9  10    3.70    3.70
 -10  -9   9    6.10    4.00
  10  -9  -9    1.80    4.00
  10  -9  -8    2.40    3.50
 -10  -9   8    9.50    3.10
 -10  -9   8    4.00    3.00
 -10  -9   7   -1.70    2.40
  10  -9  -7   -1.40    2.70
 -10  -9   7    1.80    2.20
  10  -9  -6   -0.10    2.90
 -10  -9   6    2.50    2.60
 -10  -9   6    0.50    1.90
 -10  -9   5    3.90    2.40
 -10  -9   5   -1.50    2.40
  10  -9  -5    1.50    3.10
  10   9  -4    8.30    3.10
  10  -9  -4    8.50    2.50
 -10  -9   4   10.30    3.10
  10  -9  -4    8.90    3.90
  10   9  -3   38.30    5.00
 -10   9   3   41.30    6.20
 -10  -9   3   46.00    6.10
  10  -9  -3   41.50    3.80
  10   9  -2   22.90    4.00
 -10   9   2   19.00    4.20
 -10  -9   2   29.50    5.00
  10  -9  -2   27.10    3.40
 -10   9   1    0.50    2.00
  10   9  -1    0.80    1.80
  10  -9  -1    3.20    2.10
 -10  -9   1    0.30    2.40
  10   9   0   -1.00    2.00
 -10   9   0    0.20    2.10
  10  -9   0    4.20    2.30
 -10  -9   0    2.20    2.40
 -10   9  -1    0.80    2.20
  10   9   1    2.40    2.30
 -10  -9  -1    1.60    2.90
  10  -9   1   -2.50    2.10
  10   9   2   27.30    4.20
 -10   9  -2   18.30    3.70
  10  -9   2   31.70    4.90
 -10  -9  -2   17.90    4.40
  10   9   3    2.80    2.30
 -10   9  -3    1.20    1.80
 -10  -9  -3   -0.30    2.30
  10  -9   3    3.00    2.60
  10   9   4    2.20    2.30
  10  -9   4    0.40    2.80
 -10  -9  -4   -4.50    2.00
  10   9   5    2.70    2.90
 -10  -9  -5    3.70    3.50
  10  -9   5    3.30    3.50
  10   9   6    3.70    3.20
 -10  -9  -6    8.30    4.20
  10  -9   6   -0.70    3.40
  10   9   7    7.60    4.00
  10  -9   7   -0.90    3.30
 -10  -9  -7   -1.40    2.60
  10   9   8    6.50    4.20
 -10  -9  -8    7.40    3.80
  10  -9   8   15.60    5.70
 -10 -10  11   -0.10    3.90
  10 -10 -11    7.20    5.40
 -10 -10  10   12.30    4.50
  10 -10 -10   12.60    5.70
 -10 -10   9    6.50    3.70
  10 -10  -9    7.30    4.20
 -10 -10   8   22.80    5.10
  10 -10  -8   17.50    5.50
  10 -10  -7   -1.90    2.90
 -10 -10   7    0.50    2.60
 -10 -10   7   -1.80    2.00
 -10 -10   6    2.80    2.80
  10 -10  -6   12.00    4.50
 -10 -10   6    3.40    2.50
 -10 -10   5   -1.60    1.90
  10 -10  -5    1.40    3.20
 -10 -10   5   -5.90    1.80
  10  10  -4   10.30    3.20
 -10 -10   4   13.60    3.50
  10 -10  -4    4.40    3.60
  10  10  -3    6.60    2.70
  10 -10  -3    5.50    3.40
  10 -10  -3    5.20    1.90
 -10 -10   3    5.70    2.80
  10  10  -2    2.30    2.20
 -10 -10   2    2.10    2.60
  10 -10  -2    4.60    2.00
  10  10  -1    2.80    2.30
 -10  10   1    0.60    2.10
  10 -10  -1    0.10    1.90
 -10 -10   1    3.00    2.70
  10  10   0   30.40    4.50
 -10  10   0   27.90    4.90
  10 -10   0   24.50    3.90
 -10 -10   0   28.90    5.10
 -10  10  -1   33.00    5.20
  10  10   1   25.60    4.40
 -10 -10  -1   22.50    5.10
  10 -10   1   31.70    4.50
 -10  10  -2    2.20    2.30
  10  10   2    2.40    2.00
 -10 -10  -2    1.60    2.30
  10 -10   2   -3.40    2.20
 -10  10  -3   -0.40    1.90
  10  10   3   -1.30    1.60
 -10 -10  -3   -1.10    2.30
  10 -10   3   -4.00    2.30
  10  10   4   26.60    4.50
  10 -10   4   27.00    5.30
 -10 -10  -4   24.10    5.40
  10  10   5   12.30    3.90
  10 -10   5   26.40    5.80
 -10 -10  -5   18.80    5.00
  10  10   6   -4.50    2.20
  10 -10   6    0.40    3.20
 -10 -10  -6   -1.10    2.40
  10  10   7    8.30    4.00
 -10 -10  -7    6.80    4.10
  10 -10   7   12.10    5.30
  10  10   8    6.40    3.90
 -10 -10  -8   -3.20    2.70
  10 -10   8    6.70    4.90
  10 -11 -11   26.70    7.60
 -10 -11  11   24.20    6.00
 -10 -11  10    1.80    3.60
  10 -11 -10   -0.50    4.10
  10 -11  -9   -2.50    3.30
 -10 -11   9   -4.20    2.90
 -10 -11   8   -0.20    3.20
  10 -11  -8    0.60    3.90
 -10 -11   7   16.70    4.60
  10 -11  -7   23.70    6.00
 -10 -11   7   16.20    3.80
  10 -11  -6   35.80    6.70
 -10 -11   6   29.20    4.90
 -10 -11   6   21.70    4.60
 -10 -11   5   -1.70    1.70
 -10 -11   5   -0.30    2.30
  10 -11  -5    2.20    3.40
  10  11  -4    0.30    2.40
  10 -11  -4    2.50    3.40
 -10 -11   4    6.00    2.80
  10  11  -3   -2.60    1.80
 -10 -11   3    0.10    2.20
  10 -11  -3    2.20    3.10
  10  11  -2   15.70    3.70
 -10 -11   2   32.00    5.50
  10 -11  -2   26.00    5.30
  10 -11  -2   39.40    4.00
  10  11  -1   32.20    4.70
  10 -11  -1   44.50    4.60
  10 -11  -1   43.40    6.40
 -10 -11   1   40.00    6.10
  10  11   0   63.49    6.50
 -10 -11   0   70.89    8.00
  10 -11   0   56.49    6.80
  10 -11   0   76.59    5.60
  10  11   1   -0.10    1.80
 -10 -11  -1   -4.90    1.90
  10 -11   1    0.90    2.40
  10 -11   1    2.80    2.70
  10  11   2    2.70    2.40
  10 -11   2    6.10    3.10
 -10 -11  -2   -1.70    2.30
  10 -11   2    2.20    2.90
  10  11   3   61.59    6.60
  10 -11   3   65.49    7.60
 -10 -11  -3   57.39    7.80
  10 -11   3   51.89    6.00
  10  11   4    1.70    2.60
 -10 -11  -4    3.00    3.30
  10 -11   4    2.10    3.20
  10  11   5   32.30    5.30
  10 -11   5   24.70    5.60
 -10 -11  -5   30.30    6.40
  10  11   6    8.90    3.80
 -10 -11  -6   14.60    4.90
  10 -11   6   11.60    4.90
  10  11   7    2.30    3.20
 -10 -11  -7    0.90    3.30
  10 -11   7    7.90    5.00
 -10 -12  10   13.10    4.90
  10 -12 -10    6.10    5.30
  10 -12  -9   40.00    8.10
 -10 -12   9   38.00    6.60
 -10 -12   8    4.30    3.60
  10 -12  -8    4.90    4.40
 -10 -12   7   58.79    7.30
  10 -12  -7   53.09    8.30
 -10 -12   7   67.39    7.20
 -10 -12   6   14.60    3.80
 -10 -12   6   12.10    3.80
  10 -12  -6   14.50    4.80
  10 -12  -5    1.70    3.50
 -10 -12   5   -0.40    2.30
 -10 -12   5    0.80    2.30
  10  12  -4   11.30    3.50
  10 -12  -4    7.30    4.10
 -10 -12   4    7.50    3.20
  10  12  -3   -1.50    1.90
 -10 -12   3   -2.00    2.00
  10 -12  -3    1.20    3.10
  10  12  -2   18.40    3.80
  10 -12  -2   17.20    4.70
 -10 -12   2   19.60    4.60
  10  12  -1    3.60    2.70
  10 -12  -1    0.50    2.70
 -10 -12   1    4.20    3.00
  10 -12  -1    5.00    2.50
  10  12   0   15.70    3.60
 -10 -12   0   17.60    4.70
  10 -12   0   15.40    4.10
  10 -12   0   14.60    3.50
  10  12   1    7.70    2.80
 -10 -12  -1    2.10    3.10
  10 -12   1    1.60    2.40
  10 -12   1    0.70    2.40
  10  12   2   11.40    3.20
  10 -12   2   13.20    3.40
 -10 -12  -2   14.80    4.70
  10 -12   2   15.00    3.90
  10  12   3   16.70    3.60
 -10 -12  -3   13.00    4.50
  10 -12   3   14.70    4.40
  10 -12   3   22.60    4.30
  10  12   4   11.50    3.60
  10 -12   4    5.60    3.90
 -10 -12  -4   10.40    4.40
  10  12   5    4.90    2.90
  10 -12   5    3.90    4.20
 -10 -12  -5    2.40    3.50
  10  12   6   21.90    4.90
  10 -12   6   24.80    6.40
 -10 -12  -6   19.60    5.70
  10  12   7   23.40    5.30
 -10 -12  -7   26.50    6.60
  10 -12   7   31.30    7.30
 -10 -13  10    5.40    4.20
  10 -13 -10    3.40    4.90
  10 -13  -9   14.10    6.10
 -10 -13   9   21.60    5.50
  10 -13  -8    9.90    5.00
 -10 -13   8    7.70    3.70
  10 -13  -7   12.50    5.60
 -10 -13   7   18.20    4.50
 -10 -13   6    0.80    2.90
 -10 -13   6    3.70    2.60
  10 -13  -6   -1.60    3.20
 -10 -13   5   -3.70    2.00
  10 -13  -5   -6.40    2.80
 -10 -13   5    1.10    2.10
  10  13  -4    1.90    2.50
  10 -13  -4   -1.90    3.20
 -10 -13   4    2.90    2.70
  10  13  -3   -1.60    2.00
  10 -13  -3    5.40    3.80
 -10 -13   3   -3.00    2.30
  10  13  -2    4.10    2.60
  10 -13  -2    1.40    3.20
 -10 -13   2    3.80    3.00
  10  13  -1   43.30    5.70
  10 -13  -1   54.19    7.40
 -10 -13   1   38.10    6.20
  10  13   0   10.70    3.10
 -10 -13   0   12.80    4.40
  10 -13   0    9.40    3.80
  10 -13   0    6.80    3.00
  10  13   1    5.90    3.00
  10 -13   1    5.90    3.40
  10 -13   1    6.30    3.10
 -10 -13  -1    9.80    4.00
  10  13   2    3.80    2.50
 -10 -13  -2    0.80    3.10
  10 -13   2   -0.30    2.50
  10 -13   2    2.60    2.90
  10  13   3    0.10    2.00
 -10 -13  -3   -1.40    2.90
  10 -13   3   -1.00    2.40
  10  13   4    2.10    2.40
 -10 -13  -4    3.90    3.90
  10 -13   4   -3.00    3.00
  10  13   5    1.50    2.80
 -10 -13  -5   -7.10    2.10
  10 -13   5   -4.60    2.70
  10  13   6    4.20    3.60
  10 -13   6    2.60    4.30
 -10 -13  -6    3.30    3.70
 -10 -13  -7    4.00    4.70
  10 -13   7   -3.30    3.50
  10 -14  -9    1.40    4.70
 -10 -14   9    4.10    3.60
  10 -14  -8    2.00    4.00
 -10 -14   8    4.00    3.60
  10 -14  -7   -2.30    3.80
 -10 -14   7   -0.40    2.90
 -10 -14   6   -1.70    2.40
 -10 -14   6    0.20    2.40
  10 -14  -6    4.80    4.00
 -10 -14   5   -2.10    2.30
  10 -14  -5   -1.70    3.20
  10  14  -4   -1.50    2.10
 -10 -14   4   -2.10    2.00
  10 -14  -4    2.00    3.80
  10  14  -3   35.10    5.30
 -10 -14   3   44.30    6.70
  10 -14  -3   38.20    6.90
  10  14  -2    1.60    2.60
  10 -14  -2    0.30    3.10
 -10 -14   2    0.40    2.70
  10  14  -1   36.80    5.30
  10 -14  -1   42.60    6.70
 -10 -14   1   43.50    6.90
  10  14   0   11.80    3.30
 -10 -14   0    4.60    3.70
  10 -14   0    4.70    3.30
  10  14   1   47.70    5.90
  10 -14   1   33.40    5.20
 -10 -14  -1   44.40    7.20
  10 -14   1   31.70    5.70
  10  14   2    1.80    2.30
  10 -14   2    3.50    2.70
 -10 -14  -2   -0.40    3.20
  10 -14   2   -1.10    2.60
  10  14   3   21.60    4.20
  10 -14   3   25.60    5.40
 -10 -14  -3   16.90    5.20
  10  14   4   -1.40    2.20
 -10 -14  -4   -1.20    3.00
  10 -14   4   -2.90    3.10
  10  14   5    6.50    3.60
 -10 -14  -5    1.20    3.70
  10 -14   5   -0.70    3.30
  10 -14   6    3.00    3.90
 -10 -14  -6   -1.80    3.80
  10 -15  -9    2.40    5.30
 -10 -15   9    4.30    4.00
 -10 -15   8   10.20    4.20
  10 -15  -8    3.70    4.60
 -10 -15   7   37.20    6.40
  10 -15  -7   41.90    8.30
 -10 -15   6   28.30    5.50
  10 -15  -6   23.50    6.60
 -10 -15   6   30.00    5.50
  10 -15  -5    1.70    2.90
 -10 -15   5    2.60    2.90
  10  15  -4   25.50    5.20
  10 -15  -4   21.40    5.90
 -10 -15   4   27.10    5.60
  10  15  -3   21.70    4.70
  10 -15  -3   14.70    4.90
 -10 -15   3   23.80    5.20
  10  15  -2   -0.80    2.00
 -10 -15   2    7.30    3.70
  10 -15  -2    3.10    3.70
  10  15  -1   -0.50    2.30
  10 -15  -1    3.30    3.20
 -10 -15   1    1.40    3.10
  10  15   0    0.30    2.30
  10 -15   0    5.30    3.30
 -10 -15   0    0.30    2.80
  10  15   1   13.80    3.70
  10 -15   1   13.00    3.90
 -10 -15  -1   16.90    5.00
  10  15   2   -0.40    2.20
  10 -15   2   -0.60    2.20
  10 -15   2    0.00    2.80
 -10 -15  -2    1.30    3.60
  10  15   3   66.89    7.00
  10 -15   3   51.39    6.90
 -10 -15  -3   71.69    9.80
  10  15   4   -1.10    2.10
  10 -15   4    2.20    3.60
 -10 -15  -4    0.10    3.80
  10  15   5   29.00    8.30
 -10 -15  -5   14.90    5.70
  10 -15   5   17.10    5.70
 -10 -15  -6    1.30    4.00
  10 -15   6    2.70    4.40
  10 -16  -8    8.80    5.90
 -10 -16   8    6.20    3.90
  10 -16  -7   51.79    9.50
 -10 -16   7   36.10    6.30
 -10 -16   6   57.79    7.80
  10 -16  -6   33.40    7.60
  10  16  -5    7.30    3.80
 -10 -16   5    7.60    3.50
  10 -16  -5   -0.20    4.00
  10  16  -4   -0.90    2.60
  10 -16  -4   -4.50    3.20
 -10 -16   4   -4.20    2.30
  10  16  -3    4.00    2.90
 -10 -16   3    6.80    3.60
  10 -16  -3    1.60    3.90
  10  16  -2   11.00    3.60
 -10 -16   2   14.40    4.60
  10 -16  -2   15.10    5.10
  10  16  -1   -0.40    2.20
 -10 -16   1    2.70    3.50
  10 -16  -1    1.50    3.20
  10  16   0    0.80    2.20
  10 -16   0    6.10    3.60
 -10 -16   0   -1.90    2.70
  10  16   1   -2.50    2.10
  10 -16   1    7.20    3.70
 -10 -16  -1   -1.80    2.90
  10  16   2    2.40    2.50
 -10 -16  -2   -1.70    3.20
  10  16   3   -1.10    2.20
  10 -16   3   -0.90    2.80
 -10 -16  -3   -4.40    2.60
  10  16   4    3.60    3.60
 -10 -16  -4    6.40    4.50
  10 -16   4    2.00    3.60
 -10 -16  -5   -3.00    3.50
  10 -16   5   -1.70    3.10
  10 -17  -8   25.80    7.70
 -10 -17   8   11.40    5.30
 -10 -17   7    9.10    4.30
  10 -17  -7   11.80    6.20
  10 -17  -6   44.60    9.00
 -10 -17   6   44.90    7.20
  10  17  -5   -2.40    2.50
 -10 -17   5    2.00    2.80
  10 -17  -5    1.60    4.50
  10  17  -4   11.80    4.00
 -10 -17   4    9.60    3.90
  10 -17  -4    2.40    4.20
  10  17  -3    3.50    3.00
 -10 -17   3    0.20    2.80
  10 -17  -3    3.50    4.40
  10  17  -2   17.80    4.50
 -10 -17   2   12.20    4.30
  10 -17  -2   17.10    5.40
  10  17  -1    0.40    2.30
  10 -17  -1   10.00    4.40
 -10 -17   1    1.30    3.30
  10  17   0    0.90    2.60
 -10 -17   0    9.60    4.80
  10 -17   0    1.60    3.00
  10  17   1    7.40    3.20
 -10 -17  -1   12.40    4.70
  10 -17   1   11.90    4.50
  10  17   2    7.50    3.10
 -10 -17  -2   10.20    5.10
  10  17   3    0.30    2.90
 -10 -17  -3   -4.30    3.30
  10 -17   4    9.10    4.40
 -10 -17  -4   10.70    5.20
 -10 -18   7   19.90    5.60
  10 -18  -7   28.00    8.10
  10 -18  -6   86.49   12.10
  10  18  -5    7.50    3.90
 -10 -18   5    2.10    3.40
  10 -18  -5   11.10    6.10
  10  18  -4   15.90    4.40
 -10 -18   4   18.70    5.30
  10 -18  -4    9.50    5.40
  10  18  -3    5.30    3.40
  10 -18  -3    6.40    4.70
 -10 -18   3    2.50    3.20
  10  18  -2   47.60    6.70
  10 -18  -2   44.50    7.90
 -10 -18   2   37.70    7.10
  10  18  -1   28.10    5.10
  10 -18  -1   26.50    6.30
 -10 -18   1   20.60    5.80
  10  18   0    2.10    2.70
  10 -18   0    6.80    4.20
 -10 -18   0    3.00    4.10
  10  18   1    6.20    3.30
 -10 -18  -1    1.20    4.20
  10 -18   1    8.40    4.70
  10  18   2   11.80    4.00
 -10 -18  -2    9.10    5.10
 -10 -18  -3    3.80    4.50
  10  19  -6   10.50    4.80
  10 -19  -6   13.90    6.50
  10  19  -5   10.20    4.20
  10 -19  -5   15.20    6.60
  10  19  -4   25.90    5.50
  10 -19  -4   14.50    6.30
 -10 -19   4   18.60    5.10
  10  19  -3   37.20    6.20
  10 -19  -3   55.49    9.30
 -10 -19   3   49.10    7.80
  10  19  -2   22.20    5.00
 -10 -19   2   18.50    5.70
  10 -19  -2   26.50    6.80
  10  19  -1   19.60    4.60
  10 -19  -1    4.60    4.30
 -10 -19   1   11.20    4.90
  10  19   0    1.40    2.60
 -10 -19   0    0.60    3.80
  10 -19   0    2.90    4.00
  10  19   1    2.80    3.50
 -10 -19  -1   -2.50    3.50
 -10 -19  -2    7.50    5.20
  10  20  -4   12.20    4.30
 -10 -20   4    8.80    4.30
  10 -20  -4    6.90    5.70
  10  20  -3    4.80    3.60
  10 -20  -3   -4.20    4.00
 -10 -20   3    1.50    3.60
  10  20  -2   11.90    4.60
 -10 -20   2   12.30    4.90
  10 -20  -2    5.60    4.70
  10  20  -1    4.50    3.20
  10 -20  -1    5.10    5.00
 -10 -20   1    4.20    4.30
  10  20   0   21.60    7.30
 -10 -20   0   25.50    6.90
  10 -20   0   22.50    6.40
 -10 -20  -1    6.40    4.90
 -11   0  12   65.09    7.20
 -11   0  11   -2.20    2.40
 -11   0  10    2.20    2.40
  11   0 -10   -0.70    2.40
 -11   0   9   -5.10    1.90
 -11   0   9    3.00    2.60
 -11   0   8    9.60    2.80
 -11   0   8   10.40    3.40
  11   0  -7   -2.90    1.60
 -11   0   7   -2.60    1.50
 -11   0   6   90.79    7.20
  11   0  -6   92.19    6.00
  11   0  -5    3.70    2.20
 -11   0   5   -2.10    1.70
 -11   0   4  912.11   26.00
  11   0  -4  913.01   23.00
  11   0  -3    0.00    1.50
 -11   0   3    0.70    2.10
 -11   0   2  281.87   12.30
  11   0  -2  297.57   10.90
  11   0  -1    1.70    1.80
 -11   0   1   -0.80    1.20
 -11   0   0    9.70    3.00
  11   0   0   14.20    3.10
 -11   0  -1   -0.60    1.60
  11   0   1    1.10    1.70
  11   0   2  258.97   11.00
 -11   0  -2  234.38   11.20
  11   0   3   -3.10    1.80
 -11   0  -3   -1.50    1.50
  11   0   4    3.10    3.10
 -11   0  -4    2.30    2.20
 -11   0  -5    2.50    2.20
  11   0   5    1.70    2.80
  11   0   6    1.90    3.10
 -11   0  -6   -2.50    1.70
  11   0   7   -2.40    2.70
  11   0   8   -0.10    3.90
  11   0   9    0.20    4.50
 -11  -1  12    9.70    3.70
 -11   1  11   61.69    6.70
  11  -1 -11   58.19    9.60
 -11  -1  11   53.29    6.70
 -11   1  10   -0.30    2.60
 -11  -1  10    4.00    3.00
  11  -1 -10    3.60    3.40
 -11   1   9   -1.40    2.30
 -11   1   9    0.00    2.10
 -11  -1   9    0.20    2.40
 -11  -1   9   -0.70    2.10
 -11   1   8    3.00    2.50
 -11  -1   8   -0.10    1.90
 -11  -1   8   -0.40    2.20
 -11   1   7    0.90    2.40
 -11  -1   7    2.00    2.30
  11  -1  -7    0.80    1.70
 -11   1   6   34.70    5.50
  11   1  -6   31.20    4.40
 -11  -1   6   32.10    5.00
  11  -1  -6   25.80    3.70
  11   1  -5    1.20    1.80
 -11   1   5    3.10    2.60
 -11  -1   5    1.90    2.20
  11  -1  -5    2.90    1.90
  11   1  -4   17.90    3.40
 -11   1   4   15.50    4.00
  11  -1  -4   26.80    3.90
 -11  -1   4   25.00    4.60
  11   1  -3   -2.00    1.40
 -11   1   3   -0.80    1.60
 -11  -1   3   -1.70    1.10
  11  -1  -3   -0.20    1.60
  11   1  -2   25.90    3.90
 -11   1   2   16.10    3.60
  11  -1  -2   14.90    3.00
 -11  -1   2   25.90    4.50
  11   1  -1   20.90    3.50
 -11   1   1   24.30    4.20
 -11  -1   1   32.00    4.90
  11  -1  -1   27.70    3.90
 -11   1   0  120.19    7.80
  11   1   0  126.79    7.10
  11  -1   0  134.69    7.20
 -11  -1   0  141.99    8.40
 -11   1  -1    0.40    1.70
  11   1   1    2.40    2.00
 -11  -1  -1    2.00    1.90
  11  -1   1    3.00    2.20
 -11   1  -2   -1.40    1.50
  11   1   2    1.10    2.00
  11  -1   2    4.10    2.20
 -11  -1  -2   -0.40    1.80
  11   1   3    8.80    3.20
 -11   1  -3    9.50    3.00
  11  -1   3   13.70    3.70
 -11  -1  -3    6.70    2.80
 -11   1  -4   13.80    3.60
  11   1   4   16.00    4.10
  11  -1   4   16.20    4.10
 -11  -1  -4   16.80    3.70
 -11   1  -5   18.30    3.80
  11   1   5   18.80    4.50
 -11  -1  -5   17.50    3.90
  11  -1   5   19.60    4.90
  11   1   6    1.10    3.10
 -11   1  -6    2.50    2.10
 -11  -1  -6    3.50    2.50
  11  -1   6    9.90    4.10
  11   1   7   23.10    5.50
  11  -1   7   15.60    5.20
  11   1   8   15.80    5.20
  11  -1   8   29.90    6.60
  11   1   9    0.90    4.20
  11  -1   9    2.90    4.10
 -11  -2  12    5.80    3.50
 -11  -2  11   16.90    4.40
  11  -2 -11   22.20    5.30
 -11   2  10   11.00    3.30
  11  -2 -10   10.90    4.10
 -11  -2  10    9.80    3.40
 -11  -2  10   12.30    4.20
  11  -2  -9    2.10    2.50
 -11  -2   9    4.50    3.10
 -11  -2   9    0.80    2.80
 -11   2   8   10.20    4.00
 -11  -2   8    3.70    2.80
  11  -2  -8    7.20    2.60
 -11  -2   8    4.00    3.10
 -11   2   7    2.00    2.40
 -11  -2   7    2.10    2.40
 -11  -2   7   -2.60    2.00
  11  -2  -7    0.90    1.70
 -11   2   6   23.10    4.60
  11   2  -6   22.00    4.00
 -11  -2   6   23.20    4.40
  11  -2  -6   16.00    3.10
  11   2  -5   43.00    5.00
 -11   2   5   63.49    7.00
 -11  -2   5   60.99    6.70
  11  -2  -5   55.89    4.60
  11   2  -4  106.69    6.70
 -11   2   4  102.49    7.60
  11  -2  -4  107.69    6.00
 -11  -2   4   88.19    6.90
  11   2  -3   27.80    4.00
 -11   2   3   40.10    5.30
 -11  -2   3   35.60    5.10
  11  -2  -3   31.60    4.00
 -11   2   2   24.80    4.30
  11   2  -2   30.70    4.20
  11  -2  -2   31.50    4.00
 -11  -2   2   29.90    4.60
 -11   2   1   82.69    6.60
  11   2  -1   87.09    6.00
  11  -2  -1   87.99    5.80
 -11  -2   1   79.49    6.50
 -11   2   0   -1.50    1.50
  11   2   0   -0.30    1.70
 -11  -2   0   -0.70    1.80
  11  -2   0    2.20    1.90
 -11   2  -1   18.70    3.80
  11   2   1   19.00    3.60
 -11  -2  -1   17.50    3.80
  11  -2   1   24.00    4.00
 -11   2  -2   89.59    6.60
  11   2   2   93.19    6.50
  11  -2   2   79.29    6.30
 -11  -2  -2   76.69    6.60
 -11   2  -3    0.10    1.70
  11   2   3    0.30    2.30
 -11  -2  -3    1.20    2.10
  11  -2   3    3.40    2.70
  11   2   4   25.10    4.70
 -11   2  -4   36.20    5.10
 -11  -2  -4   35.10    5.30
  11  -2   4   38.40    5.80
  11   2   5   15.20    4.20
 -11   2  -5   12.80    3.30
  11  -2   5   15.10    4.20
 -11  -2  -5   18.50    4.20
  11   2   6   22.10    5.20
  11  -2   6   14.50    4.70
 -11  -2  -6   19.80    4.40
  11   2   7   29.80    6.40
  11  -2   7   26.10    6.30
  11   2   8   16.40    5.20
  11  -2   8    8.40    4.60
  11   2   9   -2.50    4.30
  11  -2   9   -1.30    3.80
 -11  -3  12   -1.70    2.60
 -11  -3  11    8.50    3.80
  11  -3 -11    2.50    3.50
  11  -3 -10    0.60    3.00
 -11  -3  10    0.70    2.60
 -11  -3  10    6.40    3.70
  11  -3  -9    9.80    3.00
  11  -3  -9   19.10    5.20
 -11  -3   9   10.80    3.50
 -11  -3   9   10.50    3.50
 -11   3   8   17.00    4.50
 -11  -3   8   12.00    3.40
  11  -3  -8   13.30    3.20
 -11  -3   8   18.10    3.80
 -11   3   7    7.40    3.30
 -11  -3   7    3.60    2.40
  11  -3  -7    3.30    1.90
 -11  -3   7    2.90    2.40
 -11   3   6   22.90    4.60
  11   3  -6   13.50    3.30
 -11  -3   6   20.40    4.00
  11  -3  -6   21.20    3.30
  11   3  -5    0.50    1.90
 -11   3   5   -0.80    2.00
 -11  -3   5    1.60    2.10
  11  -3  -5   -1.20    1.50
  11   3  -4   29.40    4.40
 -11   3   4   24.50    4.80
  11  -3  -4   34.80    4.00
 -11  -3   4   29.20    4.80
  11   3  -3   96.89    6.30
 -11   3   3   94.99    7.20
 -11  -3   3   98.29    7.20
  11  -3  -3   99.79    5.70
 -11   3   2    4.40    2.50
  11   3  -2    4.20    2.20
 -11  -3   2    6.00    2.70
  11  -3  -2    1.20    1.80
  11   3  -1   30.80    4.20
 -11   3   1   30.80    4.80
  11  -3  -1   21.80    3.30
 -11  -3   1   23.40    4.20
 -11   3   0    5.80    2.60
  11   3   0    7.70    2.60
  11  -3   0    5.30    2.40
 -11  -3   0    5.80    2.60
  11   3   1   24.50    4.10
 -11   3  -1   21.30    4.00
  11  -3   1   26.40    4.20
 -11  -3  -1   25.70    4.60
 -11   3  -2    1.10    1.80
  11   3   2    3.50    2.30
  11  -3   2    2.00    2.50
 -11  -3  -2    2.10    2.30
 -11   3  -3  112.89    7.50
  11   3   3  114.69    7.50
 -11  -3  -3  100.69    7.70
  11  -3   3  117.69    8.00
 -11   3  -4    5.50    2.70
  11   3   4   11.80    3.50
  11  -3   4    6.50    3.60
 -11  -3  -4    8.50    3.30
  11   3   5   32.60    5.90
 -11   3  -5   34.40    4.90
 -11  -3  -5   37.10    5.80
  11  -3   5   35.90    6.20
  11   3   6    2.70    3.40
 -11  -3  -6   -0.50    2.30
  11  -3   6    1.70    3.00
  11   3   7   18.00    5.00
 -11  -3  -7   11.60    3.60
  11  -3   7    7.80    4.70
  11   3   8   -2.20    3.50
  11  -3   8    6.40    4.30
  11   3   9    8.90    5.60
  11  -3   9   19.60    6.30
 -11  -4  12   -0.90    3.20
 -11  -4  11   -4.40    2.30
  11  -4 -11    1.40    3.10
 -11  -4  10    2.80    3.10
  11  -4 -10    1.20    3.10
  11  -4  -9    0.30    3.30
 -11  -4   9    1.90    2.90
 -11  -4   9    2.50    2.80
  11  -4  -8    8.30    2.40
 -11  -4   8    7.10    2.90
 -11  -4   8   12.20    3.60
 -11   4   7   41.90    6.40
  11  -4  -7   56.89    4.40
 -11  -4   7   48.00    5.70
 -11  -4   7   52.29    6.30
  11   4  -6   -0.20    1.90
 -11   4   6   -1.80    2.10
 -11  -4   6    4.00    2.50
  11  -4  -6    1.40    1.70
 -11   4   5   -1.70    2.20
  11   4  -5   -2.70    1.50
  11  -4  -5   -1.20    1.30
 -11  -4   5    2.10    2.10
 -11   4   4    5.10    2.90
  11   4  -4    6.60    2.50
  11  -4  -4    7.90    2.20
 -11  -4   4    5.50    2.70
 -11   4   3   18.70    4.30
  11   4  -3   23.20    3.80
 -11  -4   3   28.30    4.80
  11  -4  -3   23.60    3.30
 -11   4   2   -0.40    1.80
  11   4  -2   -1.20    1.40
 -11  -4   2   -0.70    1.80
  11  -4  -2   -0.70    1.60
  11   4  -1  101.49    6.70
 -11   4   1   94.69    7.10
 -11  -4   1   99.89    7.40
  11  -4  -1  111.29    6.30
 -11   4   0    4.10    2.40
  11   4   0    1.20    1.90
 -11  -4   0    5.10    2.60
  11  -4   0    3.50    2.10
  11   4   1   69.09    5.70
 -11   4  -1   72.39    6.00
  11  -4   1   69.79    5.80
 -11  -4  -1   85.79    7.10
  11   4   2   -0.60    1.60
 -11   4  -2    0.00    1.60
  11  -4   2    0.50    2.10
 -11  -4  -2    2.80    2.40
  11   4   3    6.70    3.00
 -11   4  -3    4.30    2.30
  11  -4   3    5.50    3.10
 -11  -4  -3    4.30    2.60
  11   4   4   51.59    6.20
 -11   4  -4   44.90    5.50
  11  -4   4   54.29    7.10
 -11  -4  -4   53.49    6.70
 -11   4  -5    1.50    1.80
  11   4   5   -0.10    2.60
 -11  -4  -5   -0.10    1.90
  11  -4   5    0.50    2.70
  11   4   6    0.60    2.90
 -11  -4  -6    1.90    2.60
  11  -4   6    1.30    3.40
  11   4   7   23.90    5.60
 -11  -4  -7   20.70    4.60
  11  -4   7   15.20    5.10
  11   4   8   23.30    5.80
  11  -4   8   19.00    5.90
  11  -5 -12    8.40    6.30
 -11  -5  12   -1.70    2.70
  11  -5 -11   -0.50    3.10
 -11  -5  11   -1.50    3.00
 -11  -5  10   -2.10    2.40
  11  -5 -10    6.10    4.40
 -11  -5   9   -1.30    2.30
  11  -5  -9    0.20    2.80
 -11  -5   9    2.20    2.60
 -11  -5   8    7.60    3.50
  11  -5  -8    9.80    3.90
 -11  -5   8    6.60    2.80
 -11   5   7    1.40    2.80
  11  -5  -7    3.60    1.80
 -11  -5   7    2.70    2.40
 -11  -5   7    4.90    3.00
 -11   5   6    2.20    2.90
 -11  -5   6    2.80    2.50
  11  -5  -6    1.40    1.50
 -11   5   5    2.00    2.80
  11   5  -5    7.00    2.70
  11  -5  -5    6.30    2.00
 -11  -5   5    4.50    2.50
  11   5  -4  143.39    7.90
 -11   5   4  136.99    9.20
 -11  -5   4  141.29    8.70
  11  -5  -4  131.19    6.30
 -11   5   3  269.47   12.70
  11   5  -3  295.47   11.70
  11  -5  -3  273.47    9.50
 -11  -5   3  253.57   12.00
  11   5  -2   48.00    5.30
 -11   5   2   55.79    6.50
  11  -5  -2   59.99    4.50
 -11  -5   2   52.99    6.40
  11   5  -1   80.29    6.20
 -11   5   1   94.59    6.90
  11  -5  -1   90.39    5.70
 -11  -5   1   86.79    7.00
  11   5   0    5.90    2.50
 -11   5   0    4.70    2.60
  11  -5   0   10.20    2.70
 -11  -5   0    1.30    1.80
  11   5   1  167.08    8.60
 -11   5  -1  161.78    9.10
 -11  -5  -1  157.18    9.40
  11  -5   1  158.28    8.40
  11   5   2   47.00    5.60
 -11   5  -2   49.10    5.80
 -11  -5  -2   56.19    6.80
  11  -5   2   43.10    5.60
 -11   5  -3  166.98    8.90
  11   5   3  193.58    9.90
  11  -5   3  179.68    9.90
 -11  -5  -3  185.88   10.80
  11   5   4   40.40    5.90
 -11   5  -4   48.90    5.70
  11  -5   4   47.70    6.70
 -11  -5  -4   39.10    5.90
  11   5   5   35.30    5.70
 -11  -5  -5   42.40    6.50
  11  -5   5   37.80    6.30
  11   5   6   24.20    5.30
  11  -5   6    9.50    4.20
 -11  -5  -6   13.80    4.10
  11   5   7   -4.70    3.00
 -11  -5  -7    1.40    2.90
  11  -5   7   -2.00    3.00
  11   5   8    7.10    4.50
  11  -5   8   24.70    6.40
 -11  -6  12   -0.10    3.70
  11  -6 -12    8.10    4.70
 -11  -6  11   11.20    4.20
  11  -6 -11   27.40    6.00
 -11  -6  10    1.10    3.30
  11  -6 -10    2.60    3.70
 -11  -6   9   12.40    3.70
 -11  -6   9    7.80    3.80
  11  -6  -9    7.80    4.30
 -11  -6   8    6.50    3.30
  11  -6  -8    6.10    3.70
 -11  -6   8    3.80    2.70
 -11  -6   7   68.49    7.20
  11  -6  -7   46.40    7.10
 -11  -6   7   54.99    6.50
 -11   6   6   16.50    4.30
 -11  -6   6    7.80    3.00
  11  -6  -6   10.60    2.20
 -11  -6   6    7.80    3.20
 -11   6   5   -2.80    1.80
  11   6  -5   -0.90    1.80
  11  -6  -5    0.70    1.30
 -11  -6   5   -0.10    2.20
  11   6  -4   28.30    4.40
 -11   6   4   27.30    5.10
 -11  -6   4   24.80    4.50
  11  -6  -4   22.60    3.10
  11   6  -3   11.30    3.10
 -11   6   3   10.30    3.50
  11  -6  -3   14.60    2.60
 -11  -6   3   11.50    3.30
 -11   6   2    2.60    2.60
  11   6  -2   -0.40    1.80
 -11  -6   2   -1.30    1.80
  11  -6  -2    4.10    2.10
  11   6  -1   42.50    5.10
 -11   6   1   37.60    5.40
  11  -6  -1   43.00    4.60
 -11  -6   1   35.40    5.50
 -11   6   0    8.40    2.90
  11   6   0   10.80    3.10
  11  -6   0    6.50    2.70
 -11  -6   0    5.10    2.80
  11   6   1    8.10    2.80
 -11   6  -1   12.80    3.30
  11  -6   1   12.40    3.20
 -11  -6  -1   12.60    3.80
  11   6   2   13.60    3.50
 -11   6  -2   12.00    3.20
 -11  -6  -2   12.20    3.80
  11  -6   2   10.50    3.20
 -11   6  -3   11.90    3.40
  11   6   3   11.70    3.40
 -11  -6  -3   17.00    4.20
  11  -6   3   15.70    4.10
  11   6   4   13.20    3.70
 -11   6  -4    7.50    2.80
 -11  -6  -4   18.40    4.40
  11  -6   4   11.60    4.10
  11   6   5   29.30    5.20
 -11  -6  -5   25.90    5.40
  11  -6   5   22.90    5.20
  11   6   6   -2.40    2.70
 -11  -6  -6   -2.00    1.90
  11  -6   6    6.50    4.20
  11   6   7   37.40    6.60
  11  -6   7   20.60    5.80
 -11  -6  -7   24.60    5.30
  11   6   8    0.30    3.60
  11  -6   8    4.00    4.30
 -11  -7  11    4.60    3.80
  11  -7 -11    8.00    4.50
  11  -7 -10    3.20    4.10
 -11  -7  10   -0.50    3.10
 -11  -7   9    0.40    2.90
  11  -7  -9    9.40    4.50
 -11  -7   8   12.40    3.70
 -11  -7   8   11.10    3.60
  11  -7  -8   16.30    4.90
 -11  -7   7   11.20    3.70
 -11  -7   7   12.00    3.70
  11  -7  -7   14.80    4.60
 -11   7   6    7.30    3.30
 -11  -7   6    1.20    2.60
 -11  -7   6    1.70    2.10
 -11   7   5   19.90    4.70
  11   7  -5   24.30    4.60
 -11  -7   5   22.60    4.20
  11  -7  -5   24.00    3.00
  11   7  -4    1.00    2.10
 -11   7   4    5.00    3.20
  11  -7  -4    5.10    1.90
 -11  -7   4    4.70    2.70
 -11   7   3  109.99    8.40
  11   7  -3  108.29    7.20
 -11  -7   3   92.49    7.40
  11  -7  -3  104.19    5.50
 -11   7   2   36.40    5.70
  11   7  -2   39.10    5.10
 -11  -7   2   28.50    4.90
  11  -7  -2   35.90    4.00
  11   7  -1    3.80    2.50
 -11   7   1    7.10    3.00
  11  -7  -1   10.20    2.70
 -11  -7   1    7.80    3.30
  11   7   0   28.60    4.40
 -11   7   0   34.90    5.30
  11  -7   0   28.40    4.30
 -11  -7   0   21.40    4.60
  11   7   1   35.20    5.10
 -11   7  -1   32.10    4.90
 -11  -7  -1   35.40    5.50
  11  -7   1   36.50    5.10
 -11   7  -2    1.10    1.80
  11   7   2    0.00    1.80
 -11  -7  -2   -2.30    1.30
  11  -7   2    1.30    2.30
  11   7   3   -1.80    2.20
 -11   7  -3    4.10    2.40
  11  -7   3    3.90    2.80
 -11  -7  -3   -0.50    2.00
 -11   7  -4    0.50    1.90
  11   7   4    3.20    2.50
  11  -7   4    2.40    3.00
 -11  -7  -4    1.10    2.60
  11   7   5    5.40    3.40
  11  -7   5   -0.50    3.30
 -11  -7  -5   -0.30    2.20
  11   7   6    4.90    3.50
  11  -7   6    6.20    4.00
 -11  -7  -6   -2.10    2.40
  11   7   7    4.60    4.00
 -11  -7  -7    9.30    4.00
  11  -7   7   14.80    5.50
  11   7   8    3.50    3.90
 -11  -7  -8    9.90    4.10
  11  -7   8   15.80    5.70
  11  -8 -11    3.20    4.70
 -11  -8  11    2.30    3.50
 -11  -8  10   -2.10    3.10
  11  -8 -10   -1.20    3.30
 -11  -8   9   -1.70    2.50
  11  -8  -9   -2.90    3.40
 -11  -8   8    1.20    2.10
 -11  -8   8   -0.70    2.90
  11  -8  -8    4.40    3.60
 -11  -8   7    7.60    3.30
 -11  -8   7    7.80    3.40
  11  -8  -7    2.50    3.30
  11  -8  -6   11.00    4.20
 -11  -8   6    2.60    2.80
 -11  -8   6    6.60    3.00
  11   8  -5   22.00    4.20
 -11   8   5   18.10    4.80
 -11  -8   5   32.20    5.10
 -11   8   4  102.69    8.50
  11   8  -4   99.79    7.20
 -11  -8   4   87.19    7.20
  11  -8  -4   96.69    5.00
  11   8  -3    7.60    2.90
 -11   8   3    4.40    3.00
  11  -8  -3    5.70    2.00
 -11  -8   3    2.10    2.40
 -11   8   2   25.70    5.00
  11   8  -2   33.00    4.90
  11  -8  -2   31.30    3.90
 -11  -8   2   32.10    5.30
 -11   8   1   21.80    4.50
  11   8  -1   25.80    4.40
  11  -8  -1   25.00    3.70
 -11  -8   1   19.10    4.40
  11   8   0  206.38   10.00
 -11   8   0  187.88   10.40
 -11  -8   0  188.48   11.10
  11  -8   0  208.88    9.30
 -11   8  -1   82.79    6.70
  11   8   1   83.99    6.40
 -11  -8  -1   65.59    7.60
  11  -8   1   69.09    5.80
  11   8   2    0.50    2.20
 -11   8  -2    6.40    2.80
 -11  -8  -2    8.70    3.50
  11  -8   2    6.80    3.20
  11   8   3    0.10    2.20
 -11   8  -3    5.30    2.60
 -11  -8  -3    2.70    2.80
  11  -8   3    2.40    3.00
 -11   8  -4   -1.00    1.70
  11   8   4   -0.50    2.40
  11  -8   4    1.80    2.80
 -11  -8  -4    5.70    3.30
  11   8   5    0.50    2.80
  11  -8   5    4.50    3.70
 -11  -8  -5    0.30    2.80
  11   8   6    0.60    3.10
 -11  -8  -6   -1.20    2.20
  11  -8   6   -3.50    2.90
  11   8   7    6.80    3.90
  11  -8   7    6.80    4.80
 -11  -8  -7    4.90    3.50
  11   8   8   -1.20    3.20
 -11  -8  -8    2.20    3.30
  11  -8   8    0.20    4.40
  11  -9 -11    3.50    4.90
 -11  -9  11   -1.20    3.50
 -11  -9  10    0.80    3.60
  11  -9 -10    9.60    4.90
  11  -9  -9    4.20    4.00
 -11  -9   9    1.60    3.00
  11  -9  -8   14.20    5.20
 -11  -9   8    7.50    3.40
 -11  -9   8    8.00    3.30
 -11  -9   7    2.90    2.70
  11  -9  -7    3.90    3.80
 -11  -9   7    1.30    2.60
  11  -9  -6   13.60    4.70
 -11  -9   6    8.50    3.10
 -11  -9   6    8.30    3.20
  11   9  -5   -0.30    2.00
 -11  -9   5    1.40    2.30
  11  -9  -5    5.10    3.50
 -11   9   4    3.00    2.90
  11   9  -4    7.30    3.10
 -11  -9   4    0.90    2.60
 -11   9   3    3.00    2.70
  11   9  -3    5.10    2.70
  11  -9  -3    4.40    1.90
 -11  -9   3    6.40    3.10
 -11   9   2    3.00    2.70
  11   9  -2   -0.20    1.80
 -11  -9   2    0.30    2.20
  11  -9  -2    1.10    1.60
 -11   9   1    5.00    2.70
  11   9  -1    2.50    2.40
  11  -9  -1    1.00    1.90
 -11  -9   1    5.60    3.30
 -11   9   0   -2.50    1.90
  11   9   0    3.80    2.60
 -11  -9   0    0.30    2.40
  11  -9   0    3.50    2.60
  11   9   1   38.40    5.30
 -11   9  -1   48.50    6.20
 -11  -9  -1   41.40    6.40
  11  -9   1   34.70    4.80
 -11   9  -2   15.60    3.80
  11   9   2   19.50    4.10
 -11  -9  -2   17.40    4.60
  11  -9   2   21.50    4.50
  11   9   3   10.30    3.40
 -11   9  -3    5.70    2.40
  11  -9   3    5.60    3.40
 -11  -9  -3    2.10    3.20
  11   9   4    4.20    2.90
  11  -9   4    2.60    3.00
 -11  -9  -4    2.40    2.80
  11   9   5    1.30    2.50
  11  -9   5    3.70    3.70
 -11  -9  -5    8.60    3.90
  11   9   6   -1.90    2.90
  11  -9   6   -3.00    3.00
 -11  -9  -6   -0.40    2.40
  11   9   7   -2.70    2.70
 -11  -9  -7   -4.00    2.20
  11  -9   7   -5.20    3.00
  11 -10 -11    3.30    5.20
 -11 -10  11   -0.70    3.30
  11 -10 -10   14.90    6.00
 -11 -10  10    9.90    4.50
 -11 -10   9    2.80    3.50
  11 -10  -9    8.90    4.80
  11 -10  -8   50.99    8.20
 -11 -10   8   63.89    7.70
 -11 -10   7    1.80    2.90
  11 -10  -7    1.50    3.60
 -11 -10   7   -0.70    1.80
 -11 -10   6    6.10    3.20
 -11 -10   6   12.20    3.90
  11 -10  -6    6.30    4.10
  11  10  -5    0.30    2.40
  11 -10  -5   -1.00    2.70
 -11 -10   5    0.60    2.10
  11  10  -4    4.10    2.70
  11 -10  -4   -0.40    3.00
 -11 -10   4    4.20    2.70
  11  10  -3   47.40    6.10
  11 -10  -3   54.99    7.40
 -11 -10   3   48.50    6.50
  11 -10  -3   46.00    6.20
  11  10  -2   -2.90    2.10
 -11  10   2   -0.40    2.40
 -11 -10   2   -0.80    1.70
  11 -10  -2   -1.90    1.50
 -11  10   1  141.69    9.60
  11  10  -1  141.39    8.60
  11 -10  -1  150.78    7.60
 -11 -10   1  154.28    9.90
  11  10   0   31.00    4.90
 -11  10   0   38.20    5.80
 -11 -10   0   21.50    4.80
  11 -10   0   27.40    4.30
  11  10   1    6.00    3.00
 -11  10  -1    3.40    2.40
  11 -10   1    1.50    2.20
 -11 -10  -1   -0.80    2.50
  11  10   2   18.90    3.90
 -11  10  -2   21.60    4.40
 -11 -10  -2   21.20    4.80
  11 -10   2   19.20    4.20
 -11  10  -3    4.70    2.60
  11  10   3   10.20    3.40
  11 -10   3    3.20    3.40
 -11 -10  -3    4.00    3.60
  11  10   4    0.50    2.30
 -11 -10  -4   -0.20    2.70
  11 -10   4   -1.10    3.20
  11  10   5    0.60    2.80
 -11 -10  -5   -1.70    2.70
  11 -10   5   -1.10    3.00
  11  10   6   34.70    5.90
  11 -10   6   40.80    7.40
 -11 -10  -6   28.10    6.30
  11  10   7   -1.00    2.70
 -11 -10  -7    3.70    3.40
  11 -10   7   -0.30    4.30
 -11 -11  10    0.90    3.70
  11 -11 -10    2.30    4.20
  11 -11  -9    7.10    4.90
 -11 -11   9    0.50    3.20
 -11 -11   8    1.70    2.80
  11 -11  -8    5.70    4.20
 -11 -11   7   14.70    4.20
  11 -11  -7   27.50    6.50
 -11 -11   7   20.10    4.60
 -11 -11   6   -2.40    2.30
 -11 -11   6    1.20    2.30
  11 -11  -6    7.80    4.20
  11  11  -5    1.50    2.50
 -11 -11   5    2.30    2.70
  11 -11  -5   -0.50    3.30
  11  11  -4    6.00    2.90
 -11 -11   4    6.40    3.00
  11 -11  -4   15.20    4.90
  11  11  -3   -0.80    2.00
 -11 -11   3    2.70    2.90
  11 -11  -3   -1.30    2.70
  11  11  -2    7.40    3.00
  11 -11  -2   15.90    4.70
  11 -11  -2   15.40    3.20
 -11 -11   2   16.40    4.50
  11  11  -1    7.40    3.10
  11 -11  -1    0.90    2.20
 -11 -11   1    9.90    4.00
  11 -11  -1    4.00    3.20
  11  11   0   14.00    3.60
 -11 -11   0    8.40    3.50
  11 -11   0   10.80    3.10
  11  11   1    9.00    3.10
 -11 -11  -1    7.20    3.70
  11 -11   1   10.90    3.50
  11  11   2   30.00    5.00
  11 -11   2   49.40    6.50
 -11 -11  -2   32.10    6.40
  11  11   3    4.30    2.50
  11 -11   3    4.50    3.50
 -11 -11  -3    0.80    3.10
  11 -11   3    1.90    2.50
  11  11   4    5.20    3.10
 -11 -11  -4    4.60    3.50
  11 -11   4    1.30    3.00
  11  11   5   -2.50    2.60
 -11 -11  -5    1.60    3.30
  11 -11   5    2.80    4.00
  11  11   6    5.50    3.70
 -11 -11  -6   -2.80    2.90
  11 -11   6   -2.40    3.40
  11  11   7    1.60    3.70
 -11 -11  -7   -2.30    3.20
  11 -11   7    4.40    4.60
 -11 -12  10   -1.90    3.20
  11 -12 -10    6.40    5.10
  11 -12  -9   -0.70    4.20
 -11 -12   9    1.20    3.50
 -11 -12   8   -0.90    2.70
  11 -12  -8    4.50    4.20
 -11 -12   7   51.79    6.80
 -11 -12   7   38.10    6.20
  11 -12  -7   51.09    8.40
 -11 -12   6   15.00    4.00
  11 -12  -6   12.20    4.80
 -11 -12   6   11.70    4.20
  11  12  -5   -1.10    2.20
  11 -12  -5    4.30    3.90
 -11 -12   5    2.20    2.60
  11  12  -4    0.30    2.40
  11 -12  -4    3.00    3.40
 -11 -12   4    2.20    2.40
  11  12  -3    0.50    2.50
  11 -12  -3   10.20    4.20
 -11 -12   3   -1.90    2.40
 -11 -12   2   66.49    7.90
  11 -12  -2   75.69    8.70
  11  12  -1   15.10    3.90
  11 -12  -1    9.30    3.90
 -11 -12   1    4.20    3.10
  11 -12  -1   15.00    3.40
  11  12   0   13.00    3.50
  11 -12   0   29.60    5.40
 -11 -12   0   19.80    5.10
  11 -12   0   24.90    4.30
  11  12   1    1.80    2.50
  11 -12   1    0.70    2.40
  11 -12   1    1.60    2.70
 -11 -12  -1   -1.70    2.60
  11  12   2   16.50    3.90
  11 -12   2    9.70    3.70
  11 -12   2    9.70    3.50
 -11 -12  -2   21.30    5.30
  11  12   3   22.70    4.60
  11 -12   3   28.10    6.00
  11 -12   3   23.10    5.00
 -11 -12  -3   31.70    6.40
  11  12   4   34.60    5.50
  11 -12   4   40.50    6.90
 -11 -12  -4   41.90    7.60
  11  12   5    9.30    3.80
 -11 -12  -5    1.40    3.40
  11 -12   5    8.60    4.70
  11  12   6   31.00    5.90
 -11 -12  -6   20.20    6.10
  11 -12   6   25.50    6.30
  11 -13  -9   15.00    6.30
 -11 -13   9   11.60    4.30
 -11 -13   8    1.30    3.60
  11 -13  -8    4.50    4.50
 -11 -13   7    1.00    3.00
 -11 -13   7    0.60    3.20
  11 -13  -7    2.00    3.90
  11 -13  -6    4.30    3.90
 -11 -13   6    0.00    2.80
 -11 -13   6    2.90    2.60
  11  13  -5   14.10    4.20
  11 -13  -5    9.00    4.60
 -11 -13   5   19.10    4.70
  11  13  -4    2.80    2.70
  11 -13  -4    6.70    4.00
 -11 -13   4   15.30    4.30
  11  13  -3   18.00    4.50
  11 -13  -3   24.90    6.00
 -11 -13   3   23.50    5.20
  11  13  -2    2.20    2.50
 -11 -13   2    2.30    2.80
  11 -13  -2    4.50    3.70
  11  13  -1   -0.20    2.40
  11 -13  -1    2.90    3.00
 -11 -13   1    1.70    2.90
  11  13   0   13.20    3.50
  11 -13   0   14.90    3.60
  11 -13   0   18.30    4.60
 -11 -13   0   16.20    4.60
  11  13   1    4.60    2.70
  11 -13   1   12.30    3.70
  11 -13   1    9.00    3.50
 -11 -13  -1    8.80    4.10
  11  13   2   17.00    4.10
  11 -13   2   14.50    4.40
  11 -13   2   18.90    4.20
 -11 -13  -2   11.20    4.60
  11  13   3   -1.80    2.10
 -11 -13  -3    6.30    4.10
  11 -13   3    1.20    2.90
  11  13   4   10.40    3.40
  11 -13   4   14.70    4.90
 -11 -13  -4   22.10    5.90
  11  13   5   78.99    8.30
  11 -13   5   68.09    9.00
 -11 -13  -5   59.39    9.10
  11  13   6   -2.40    3.20
 -11 -13  -6    0.50    3.70
  11 -13   6    3.40    4.10
  11 -14  -9    5.60    5.30
 -11 -14   9    3.90    3.70
  11 -14  -8    3.40    4.20
 -11 -14   8    5.50    4.20
  11 -14  -7    0.80    3.60
 -11 -14   7    1.30    3.20
 -11 -14   6    5.80    3.60
  11 -14  -6   13.80    5.50
  11  14  -5   17.60    4.50
 -11 -14   5   18.60    4.60
  11 -14  -5   15.90    5.60
  11  14  -4    6.90    3.40
 -11 -14   4    4.90    3.20
  11 -14  -4    7.30    4.50
  11  14  -3    6.10    3.30
 -11 -14   3    3.00    3.00
  11 -14  -3    3.30    3.50
  11  14  -2   -0.80    2.40
  11 -14  -2    1.10    3.50
 -11 -14   2    3.40    3.10
  11  14  -1   37.50    5.90
  11 -14  -1   29.70    6.10
 -11 -14   1   39.10    6.70
  11  14   0    1.90    2.50
  11 -14   0    3.20    3.40
 -11 -14   0    1.80    3.20
  11  14   1    2.50    2.80
  11 -14   1    5.10    3.30
  11 -14   1    1.50    2.80
 -11 -14  -1    4.40    4.10
  11  14   2   -2.30    2.10
  11 -14   2    0.50    2.90
 -11 -14  -2    1.30    3.20
  11 -14   2   -3.00    2.40
  11  14   3    1.00    2.40
  11 -14   3   -1.80    3.00
 -11 -14  -3   -5.20    2.50
  11  14   4   14.00    4.20
  11 -14   4   16.60    5.20
 -11 -14  -4   23.60    6.20
  11  14   5    6.00    3.60
  11 -14   5   -4.30    3.40
 -11 -14  -5    4.30    4.20
  11  14   6   -3.60    4.60
  11 -14   6   -1.90    4.00
 -11 -15   8    0.00    3.20
  11 -15  -8    5.70    5.00
 -11 -15   7   35.10    6.50
  11 -15  -7   24.80    7.30
  11  15  -6    4.00    3.40
 -11 -15   6    7.90    3.50
  11 -15  -6    6.90    4.60
  11  15  -5   51.39    7.00
  11 -15  -5   62.99    9.50
 -11 -15   5   61.39    7.70
  11  15  -4    5.00    3.30
  11 -15  -4    4.80    4.30
 -11 -15   4    6.80    3.40
  11  15  -3    2.10    3.00
 -11 -15   3    0.30    2.50
  11 -15  -3   -0.50    3.70
  11  15  -2    6.60    3.10
 -11 -15   2    3.70    3.50
  11 -15  -2    9.90    4.40
  11  15  -1   15.30    4.00
  11 -15  -1   11.90    4.50
 -11 -15   1   19.80    5.20
  11  15   0    0.80    2.50
  11 -15   0    0.20    2.80
 -11 -15   0    3.20    3.50
  11  15   1   -0.40    2.40
 -11 -15  -1    1.30    3.50
  11 -15   1    1.10    3.30
  11  15   2    1.50    2.20
  11 -15   2    4.80    3.40
  11 -15   2    2.00    2.90
 -11 -15  -2   -1.70    3.20
  11  15   3    6.50    3.10
  11 -15   3   -1.80    3.10
 -11 -15  -3    0.20    3.30
  11  15   4    2.30    2.70
  11 -15   4   -2.60    3.30
 -11 -15  -4    1.90    4.00
  11  15   5    8.80    4.30
 -11 -15  -5   15.70    5.60
  11 -15   5   15.70    5.60
  11 -16  -8    3.60    4.70
 -11 -16   8   -2.30    3.00
 -11 -16   7   -1.70    3.00
  11 -16  -7    4.40    5.10
  11  16  -6    1.00    3.20
 -11 -16   6    5.60    3.70
  11 -16  -6   13.90    6.00
  11  16  -5   -0.70    2.80
  11 -16  -5    9.40    5.20
 -11 -16   5   -1.20    2.30
  11  16  -4   -1.70    2.30
 -11 -16   4    5.40    3.50
  11 -16  -4    8.80    4.60
  11  16  -3   57.09    7.20
 -11 -16   3   53.39    7.90
  11 -16  -3   43.90    7.80
  11  16  -2   -0.50    2.60
 -11 -16   2    0.90    2.90
  11 -16  -2   -2.60    2.60
  11  16  -1   24.20    4.90
  11 -16  -1   22.30    5.70
 -11 -16   1   16.60    5.10
  11  16   0    0.80    2.30
  11 -16   0   -1.20    2.70
 -11 -16   0    0.30    3.20
  11  16   1   19.40    4.20
  11 -16   1   23.90    5.60
 -11 -16  -1   26.80    6.50
  11  16   2   -1.00    2.30
 -11 -16  -2   -1.30    3.10
  11  16   3    5.30    2.90
  11 -16   3    4.40    3.90
 -11 -16  -3    3.90    4.20
  11  16   4    1.50    3.00
 -11 -16  -4   10.10    5.10
  11 -16   4   -0.20    3.40
  11 -17  -7   12.80    6.10
 -11 -17   7    4.10    3.90
  11  17  -6   11.20    4.40
  11 -17  -6   17.70    6.50
  11  17  -5   12.10    4.20
  11 -17  -5   13.20    5.90
 -11 -17   5   12.80    4.40
  11  17  -4    6.50    3.50
  11 -17  -4    9.50    5.20
 -11 -17   4    9.50    4.00
  11  17  -3   34.60    6.10
  11 -17  -3   39.20    7.90
 -11 -17   3   21.00    5.60
  11  17  -2    5.20    3.50
 -11 -17   2    3.30    3.50
  11 -17  -2   -1.90    3.20
  11  17  -1   73.69    8.10
 -11 -17   1   68.39    9.30
  11 -17  -1   57.49    8.40
  11  17   0    8.50    3.40
 -11 -17   0   12.00    4.90
  11 -17   0    9.20    4.30
  11  17   1   21.40    5.00
 -11 -17  -1   16.90    5.50
  11 -17   1   11.60    4.70
  11  17   2    1.70    2.70
 -11 -17  -2    0.70    4.00
  11  17   3    3.40    2.90
 -11 -17  -3    3.40    4.40
  11  18  -6   69.09    8.60
  11 -18  -6   80.99   11.80
  11  18  -5   -0.10    2.90
  11 -18  -5    1.70    4.90
 -11 -18   5    0.20    3.40
  11  18  -4   26.10    5.40
  11 -18  -4   28.50    7.50
 -11 -18   4   21.80    6.00
  11  18  -3    2.00    3.20
  11 -18  -3    2.30    4.00
 -11 -18   3    1.30    3.30
  11  18  -2   15.30    4.60
  11 -18  -2   15.30    5.40
 -11 -18   2   18.40    5.30
  11  18  -1    1.60    3.00
 -11 -18   1    3.30    4.40
  11 -18  -1    2.00    3.70
  11  18   0    2.60    2.90
  11 -18   0   -1.40    3.40
 -11 -18   0   -1.70    3.50
  11  18   1    1.00    2.60
  11 -18   1    1.60    4.80
 -11 -18  -1   -4.90    3.20
  11  18   2    1.10    2.70
 -11 -18  -2   -1.00    3.80
  11  19  -5   -3.30    3.20
  11 -19  -5    1.20    5.00
  11  19  -4    1.50    3.00
 -11 -19   4    2.60    3.80
  11 -19  -4    3.00    4.90
  11  19  -3    1.90    3.40
 -11 -19   3    3.60    4.30
  11 -19  -3   10.20    5.30
  11  19  -2   33.40    6.20
 -11 -19   2   29.60    6.90
  11 -19  -2   39.10    8.30
  11  19  -1   -2.80    2.30
 -11 -19   1    0.20    3.50
  11 -19  -1   11.70    5.20
  11  19   0    3.50    3.10
 -11 -19   0   -2.90    3.20
  11 -19   0    5.60    4.80
  11  19   1    3.50    3.10
 -11 -19  -1    1.10    4.30
 -12   0  12   -2.70    3.10
 -12   0  11    2.10    3.00
 -12   0  10   13.00    3.80
 -12   0   9   -3.50    2.30
 -12   0   8    9.40    3.50
  12   0  -8   10.90    3.00
  12   0  -7   -0.90    1.80
 -12   0   7    1.20    2.60
 -12   0   6   15.60    4.00
  12   0  -6   10.50    2.90
 -12   0   5   -2.40    1.50
  12   0  -5    0.90    1.70
 -12   0   4   98.29    7.60
  12   0  -4   96.09    6.30
  12   0  -3    1.60    1.80
 -12   0   3    1.60    2.30
  12   0  -2  329.47   12.10
 -12   0   2  315.47   13.80
  12   0  -1    2.40    2.10
 -12   0   1    0.90    2.10
 -12   0   0  447.86   16.80
  12   0   0  451.85   15.10
 -12   0  -1    2.80    2.40
  12   0   1   -4.50    1.70
 -12   0  -2   20.70    4.30
  12   0   2   34.40    4.90
 -12   0  -3   -0.30    1.70
  12   0   3    1.80    2.60
 -12   0  -4  161.68    9.70
  12   0   4  145.79    9.60
 -12   0  -5    0.10    2.10
  12   0   5   -2.40    2.50
  12   0   6    3.10    3.60
 -12   0  -6    0.40    2.10
  12   0   7   -2.20    3.40
  12   0   8    3.40    4.20
 -12  -1  12   -0.50    3.00
 -12   1  11    2.60    2.90
 -12  -1  11    3.50    3.40
  12  -1 -11    6.20    3.70
  12  -1 -10   17.50    5.00
 -12  -1  10    5.80    2.90
 -12  -1  10   11.80    4.50
 -12   1   9   -1.00    2.40
 -12  -1   9    2.40    2.70
 -12  -1   9    1.20    2.90
  12  -1  -9    5.80    2.80
  12   1  -8    7.00    2.80
 -12   1   8    0.10    2.50
 -12  -1   8    4.00    3.00
  12  -1  -8    4.40    2.40
 -12   1   7   30.60    5.70
  12   1  -7   26.70    4.50
  12  -1  -7   25.80    4.00
 -12  -1   7   27.40    5.00
  12   1  -6   16.50    3.50
 -12   1   6   20.30    4.40
  12  -1  -6   18.90    3.50
 -12  -1   6   28.50    5.10
  12   1  -5    1.80    2.20
 -12   1   5    5.10    2.80
  12  -1  -5    3.40    2.00
 -12  -1   5    0.10    1.80
  12   1  -4   33.70    4.50
 -12   1   4   27.70    5.10
 -12  -1   4   26.20    4.80
  12  -1  -4   31.60    4.10
  12   1  -3   -0.80    1.90
 -12   1   3   -1.70    1.90
 -12  -1   3    1.20    2.20
  12  -1  -3    1.10    2.00
 -12   1   2    3.10    2.20
  12   1  -2    4.50    2.40
 -12  -1   2    1.60    2.30
  12  -1  -2    5.80    2.40
 -12   1   1    1.80    2.40
  12   1  -1    1.10    1.90
  12  -1  -1   -0.50    1.60
 -12  -1   1    4.20    2.60
  12   1   0   92.89    6.50
 -12   1   0   83.19    7.00
  12  -1   0   97.39    6.50
 -12  -1   0   93.09    7.40
  12   1   1   43.40    5.40
 -12   1  -1   49.60    6.20
 -12  -1  -1   47.60    6.20
  12  -1   1   41.40    5.50
 -12   1  -2  175.38    9.80
  12   1   2  173.78    9.30
  12  -1   2  158.68    9.00
 -12  -1  -2  153.18    9.50
  12   1   3    3.70    3.20
 -12   1  -3    3.70    2.50
 -12  -1  -3    4.90    2.60
  12  -1   3    7.20    3.40
  12   1   4   23.40    5.00
 -12   1  -4   21.60    4.50
  12  -1   4   22.70    4.80
 -12  -1  -4   21.20    4.30
 -12   1  -5    5.70    2.70
  12   1   5    0.50    2.80
  12  -1   5    4.00    3.50
 -12  -1  -5    6.60    2.90
  12   1   6    4.40    4.10
  12  -1   6   11.50    4.40
 -12  -1  -6    1.00    2.10
  12   1   7    0.20    3.30
  12  -1   7    2.10    3.70
  12   1   8   -2.60    3.90
  12  -1   8    5.40    4.50
 -12  -2  12   -2.30    2.60
  12  -2 -11   -0.20    3.40
 -12  -2  11    0.00    2.80
 -12  -2  10   -5.60    2.30
  12  -2 -10   -1.20    2.60
  12  -2 -10    3.20    2.70
 -12  -2  10   -3.10    2.10
 -12   2   9    7.00    3.70
  12  -2  -9    1.90    2.30
 -12  -2   9    1.70    2.60
 -12  -2   9    5.10    3.20
 -12   2   8    9.50    3.80
 -12  -2   8    5.50    3.10
  12  -2  -8    9.30    3.00
 -12   2   7   -0.70    2.50
  12   2  -7    2.50    2.30
 -12  -2   7    1.10    2.30
  12  -2  -7   -0.50    1.60
 -12   2   6   18.40    4.50
  12   2  -6   13.70    3.40
  12  -2  -6   20.00    3.40
 -12  -2   6   13.60    3.80
 -12   2   5  118.99    8.60
  12   2  -5  113.39    7.20
 -12  -2   5  102.99    7.70
  12  -2  -5  114.29    6.70
  12   2  -4   -0.20    1.80
 -12   2   4    5.50    3.00
 -12  -2   4    0.70    2.40
  12  -2  -4    3.90    2.10
 -12   2   3  299.77   13.40
  12   2  -3  318.37   12.00
  12  -2  -3  290.17   11.10
 -12  -2   3  303.47   13.40
  12   2  -2  203.98    9.50
 -12   2   2  197.68   10.70
  12  -2  -2  189.48    8.60
 -12  -2   2  187.98   10.40
 -12   2   1   26.50    4.80
  12   2  -1   20.30    3.80
  12  -2  -1   23.20    3.80
 -12  -2   1   13.80    3.60
 -12   2   0   90.19    7.10
  12   2   0   73.79    5.90
  12  -2   0   79.49    6.20
 -12  -2   0   86.99    7.30
 -12   2  -1   88.79    7.00
  12   2   1   77.09    6.10
  12  -2   1   81.69    6.30
 -12  -2  -1   99.29    7.60
  12   2   2    6.00    2.80
 -12   2  -2    6.70    2.90
 -12  -2  -2    4.20    2.70
  12  -2   2    2.60    2.50
  12   2   3   82.19    6.90
 -12   2  -3  111.39    7.70
 -12  -2  -3   96.59    7.70
  12  -2   3   97.59    7.60
 -12   2  -4   19.30    4.20
  12   2   4   20.10    4.70
  12  -2   4   31.50    5.80
 -12  -2  -4   20.00    4.50
 -12   2  -5    5.60    2.80
  12   2   5    4.00    3.20
 -12  -2  -5    6.90    3.20
  12  -2   5    6.90    4.00
  12   2   6   11.00    4.40
 -12  -2  -6   13.50    4.00
  12  -2   6    7.80    4.70
  12   2   7    1.90    3.80
  12  -2   7   -0.50    3.30
  12   2   8   13.70    5.50
  12  -2   8    7.40    5.40
 -12  -3  12    9.90    4.00
  12  -3 -11   26.90    6.30
 -12  -3  11   19.80    4.80
 -12  -3  10   32.60    5.60
 -12  -3  10   31.20    6.00
  12  -3 -10   43.10    7.20
 -12  -3   9   31.30    5.40
  12  -3  -9   26.50    4.10
  12  -3  -9   19.40    5.30
 -12  -3   9   24.30    4.70
 -12   3   8    2.30    3.00
  12  -3  -8    4.90    2.40
 -12  -3   8    7.20    3.10
 -12  -3   8    0.90    2.70
 -12   3   7   38.30    6.10
  12   3  -7   49.20    5.90
 -12  -3   7   39.20    5.90
  12  -3  -7   39.40    4.60
  12   3  -6    0.80    2.10
 -12   3   6   -3.00    1.80
  12  -3  -6    0.80    1.60
 -12  -3   6    0.10    2.10
 -12   3   5   86.59    7.50
  12   3  -5   98.49    6.70
 -12  -3   5   76.79    6.90
  12  -3  -5   77.39    5.40
 -12   3   4  156.98    9.80
  12   3  -4  153.08    8.50
 -12  -3   4  129.39    8.80
  12  -3  -4  141.29    7.20
  12   3  -3    8.30    2.90
 -12   3   3    3.10    2.60
  12  -3  -3    7.00    2.50
 -12  -3   3    4.10    2.80
 -12   3   2   88.79    7.20
  12   3  -2   83.09    6.20
 -12  -3   2   82.69    7.10
  12  -3  -2   93.89    5.90
 -12   3   1  110.19    7.90
  12   3  -1   96.99    6.70
  12  -3  -1   94.19    6.10
 -12  -3   1   92.99    7.30
  12   3   0    8.20    2.80
 -12   3   0   16.70    3.90
 -12  -3   0    4.30    2.80
  12  -3   0   14.60    3.20
  12   3   1    0.80    2.00
 -12   3  -1    3.70    2.40
 -12  -3  -1    2.20    2.40
  12  -3   1    6.20    2.70
 -12   3  -2   30.70    4.90
  12   3   2   31.70    5.00
 -12  -3  -2   31.90    5.30
  12  -3   2   34.60    5.10
  12   3   3    1.90    2.40
 -12   3  -3    2.60    2.50
  12  -3   3    3.30    3.00
 -12  -3  -3    3.80    2.70
 -12   3  -4    8.50    3.10
  12   3   4    4.50    3.40
  12  -3   4    4.50    3.20
 -12  -3  -4    4.90    3.10
 -12   3  -5    6.00    2.70
  12   3   5    4.90    3.50
 -12  -3  -5    5.70    2.90
  12  -3   5    6.40    3.90
  12   3   6   -0.30    3.00
 -12  -3  -6    2.30    2.90
  12  -3   6    7.10    4.30
  12   3   7   -1.20    3.00
  12  -3   7   -2.60    3.00
  12   3   8    4.60    4.20
  12  -3   8    7.10    4.80
 -12  -4  12   -2.10    3.10
  12  -4 -11    6.40    3.80
 -12  -4  11    6.70    3.70
  12  -4 -10    1.30    3.30
 -12  -4  10    6.70    3.80
 -12  -4   9    9.60    3.90
 -12  -4   9   13.50    3.90
  12  -4  -9    8.20    4.10
 -12   4   8   -0.60    2.80
  12  -4  -8    1.00    1.90
 -12  -4   8    4.20    2.90
 -12  -4   8    3.20    3.00
  12   4  -7   12.30    3.80
 -12   4   7   12.80    4.10
 -12  -4   7   15.00    4.10
  12  -4  -7   13.30    2.70
 -12   4   6    4.10    2.60
  12   4  -6    0.30    2.10
  12  -4  -6    1.00    1.70
 -12  -4   6   -3.00    1.60
 -12   4   5  128.29    9.30
  12   4  -5  146.09    8.50
 -12  -4   5  161.78    9.60
  12  -4  -5  147.89    7.10
 -12   4   4   -0.40    2.30
  12   4  -4    1.60    2.10
 -12  -4   4   -1.70    2.00
  12  -4  -4   -0.20    1.60
  12   4  -3   23.40    4.10
 -12   4   3   18.20    4.40
 -12  -4   3   15.90    3.90
  12  -4  -3   18.00    3.00
  12   4  -2   -2.30    1.50
 -12   4   2   -1.40    1.50
 -12  -4   2    2.50    2.50
  12  -4  -2   -2.50    1.60
 -12   4   1   40.00    5.70
  12   4  -1   41.70    5.20
 -12  -4   1   38.20    5.70
  12  -4  -1   36.90    4.50
  12   4   0    2.90    2.30
 -12   4   0    0.80    1.90
  12  -4   0    3.00    2.20
 -12  -4   0    3.70    2.70
 -12   4  -1    3.30    2.40
  12   4   1    3.50    2.60
  12  -4   1    3.80    2.60
 -12  -4  -1    5.20    2.80
  12   4   2    7.80    3.00
 -12   4  -2   19.70    4.10
 -12  -4  -2   26.90    5.10
  12  -4   2   10.30    3.40
  12   4   3   34.50    5.40
 -12   4  -3   25.00    4.40
  12  -4   3   35.80    5.60
 -12  -4  -3   29.60    5.40
  12   4   4    9.60    3.60
 -12   4  -4   12.10    3.40
 -12  -4  -4    8.60    3.30
  12  -4   4   10.90    4.10
  12   4   5    8.70    3.60
 -12   4  -5    4.80    2.70
 -12  -4  -5    8.50    3.50
  12  -4   5   -0.20    3.30
  12   4   6   -0.20    2.90
 -12  -4  -6   -1.00    2.10
  12  -4   6    0.90    3.40
  12   4   7   -4.40    3.20
  12  -4   7    0.60    3.60
 -12  -4  -7   -1.50    2.50
  12   4   8   -4.20    3.00
  12  -4   8    1.40    4.50
 -12  -5  11    3.10    3.40
  12  -5 -11   11.40    4.50
  12  -5 -10   12.40    4.60
 -12  -5  10    9.90    3.90
 -12  -5   9   29.30    5.50
 -12  -5   9   18.30    4.40
  12  -5  -9   24.80    5.90
 -12  -5   8    6.10    3.20
 -12  -5   8   10.30    3.90
  12  -5  -8   15.00    4.70
 -12   5   7   27.90    5.80
  12  -5  -7   29.90    3.90
 -12  -5   7   33.30    5.50
 -12   5   6    3.40    3.10
  12   5  -6    6.90    2.90
 -12  -5   6    2.40    2.50
  12  -5  -6    5.20    1.90
  12   5  -5    3.50    2.40
 -12   5   5    0.70    2.30
  12  -5  -5    1.60    1.80
 -12  -5   5    3.50    2.70
  12   5  -4   76.89    6.30
 -12   5   4   89.79    7.70
  12  -5  -4   82.79    5.30
 -12  -5   4   65.09    7.30
 -12   5   3   69.09    7.80
  12   5  -3   72.99    6.10
  12  -5  -3   64.69    4.90
 -12  -5   3   65.09    7.30
 -12   5   2   13.80    3.90
  12  -5  -2   18.20    3.30
 -12  -5   2    8.40    3.30
  12   5  -1  139.59    8.20
 -12   5   1  133.29    8.90
  12  -5  -1  147.79    7.60
 -12  -5   1  147.79    9.40
 -12   5   0   37.50    5.50
  12   5   0   24.80    4.30
  12  -5   0   28.30    4.10
 -12  -5   0   24.20    4.80
 -12   5  -1    0.30    2.00
  12   5   1   -2.30    1.60
 -12  -5  -1    5.50    2.90
  12  -5   1   -1.50    2.40
  12   5   2    3.10    2.50
 -12   5  -2    3.50    2.40
 -12  -5  -2    7.20    3.00
  12  -5   2    3.90    3.00
 -12   5  -3   12.30    3.20
  12   5   3    4.30    2.70
  12  -5   3   13.00    4.20
 -12  -5  -3   16.70    4.30
  12   5   4   -0.50    2.50
 -12   5  -4   -0.80    1.80
 -12  -5  -4    2.60    2.60
  12  -5   4    0.70    2.80
  12   5   5    7.20    3.90
 -12  -5  -5    9.20    3.50
  12  -5   5   10.60    4.00
  12   5   6    4.20    4.00
  12  -5   6   -3.10    3.00
 -12  -5  -6    1.50    2.50
  12   5   7    4.50    4.40
 -12  -5  -7    5.00    3.60
  12  -5   7    6.60    4.60
  12   5   8    4.50    4.00
  12  -5   8   -1.60    3.70
  12  -6 -11    9.10    4.70
 -12  -6  11    3.70    3.50
  12  -6 -10    1.20    3.30
 -12  -6  10   -0.40    3.10
  12  -6  -9    4.90    3.90
 -12  -6   9    4.30    3.50
 -12  -6   9    2.10    2.80
 -12  -6   8    4.30    3.20
 -12  -6   8    7.60    3.20
  12  -6  -8    8.70    4.40
 -12   6   7   -0.70    2.50
 -12  -6   7    1.00    2.50
  12   6  -6   13.10    3.60
 -12   6   6    6.90    3.50
 -12  -6   6    5.70    2.90
  12  -6  -6   11.10    2.50
  12   6  -5   19.80    4.10
 -12   6   5   18.50    4.80
 -12  -6   5   33.20    5.40
  12  -6  -5   29.50    3.70
  12   6  -4   -0.60    2.00
 -12   6   4   -1.70    2.20
 -12  -6   4    1.50    2.50
  12  -6  -4    2.10    1.60
  12   6  -3    1.30    2.00
 -12   6   3    1.40    2.70
  12  -6  -3    1.30    1.80
 -12  -6   3    2.90    2.50
  12   6  -2  128.39    8.00
 -12   6   2  119.29    8.70
 -12  -6   2  135.49    9.10
  12  -6  -2  128.79    6.90
  12   6  -1    6.00    3.00
 -12   6   1   10.00    3.40
 -12  -6   1    5.60    3.00
  12  -6  -1    7.20    2.70
  12   6   0   -2.20    1.60
 -12   6   0   -2.10    1.90
  12  -6   0   -1.30    2.00
 -12  -6   0    1.10    2.30
  12   6   1    5.90    2.80
 -12   6  -1    7.20    2.90
  12  -6   1    2.90    2.70
 -12  -6  -1    5.80    3.10
 -12   6  -2   24.30    4.40
  12   6   2   13.10    3.60
 -12  -6  -2   16.30    4.20
  12  -6   2   18.10    4.20
 -12   6  -3    2.20    2.10
  12   6   3    2.80    2.70
  12  -6   3    3.60    3.10
 -12  -6  -3    5.20    3.20
  12   6   4    6.20    3.20
 -12   6  -4   11.20    3.40
  12  -6   4   10.00    4.10
 -12  -6  -4    3.10    2.80
  12   6   5   12.60    4.40
  12  -6   5   14.90    4.80
 -12  -6  -5   18.80    4.80
  12   6   6   11.70    4.50
  12  -6   6   10.80    4.80
 -12  -6  -6    7.40    3.70
  12   6   7    2.90    3.90
  12  -6   7   -1.00    4.20
 -12  -6  -7    0.10    2.80
 -12  -7  11   19.00    5.20
  12  -7 -11   29.10    7.00
 -12  -7  10    2.20    3.20
  12  -7 -10    1.80    4.30
  12  -7  -9   16.70    5.30
 -12  -7   9   16.70    4.50
 -12  -7   9   20.70    5.50
 -12  -7   8   14.10    3.70
  12  -7  -8   14.20    5.00
 -12  -7   8   13.10    4.00
 -12  -7   7   -0.60    2.60
  12  -7  -7    1.70    3.40
 -12  -7   7    1.90    2.70
  12   7  -6  176.18   10.20
 -12   7   6  172.38   11.60
 -12  -7   6  149.79    9.50
 -12   7   5   22.80    5.20
  12   7  -5   21.20    4.50
 -12  -7   5   19.90    4.20
  12  -7  -5   25.60    3.20
  12   7  -4   17.00    3.90
 -12   7   4   26.40    5.30
  12  -7  -4   25.60    3.40
 -12  -7   4   28.30    5.20
 -12   7   3   60.79    7.50
  12   7  -3   56.39    6.40
 -12  -7   3   54.79    6.80
  12  -7  -3   54.59    4.40
  12   7  -2  191.78    9.90
 -12   7   2  184.68   11.00
 -12  -7   2  176.68   10.70
  12  -7  -2  182.68    8.20
 -12   7   1   48.10    6.50
  12   7  -1   35.10    5.00
  12  -7  -1   43.40    5.10
 -12  -7   1   41.30    6.30
  12   7   0  111.79    7.60
 -12   7   0   98.29    7.80
  12  -7   0  117.79    7.30
 -12  -7   0  112.09    8.70
 -12   7  -1    7.10    3.00
  12   7   1   10.20    3.20
  12  -7   1    5.00    2.70
 -12  -7  -1   12.50    4.20
  12   7   2   19.40    4.00
 -12   7  -2   23.10    4.40
  12  -7   2   19.80    4.30
 -12  -7  -2   19.50    4.70
  12   7   3   -2.70    2.10
 -12   7  -3   -0.30    1.80
 -12  -7  -3    3.60    3.10
  12  -7   3   -5.20    2.00
  12   7   4    7.10    3.40
 -12   7  -4    6.80    2.80
 -12  -7  -4    6.40    3.50
  12  -7   4    3.30    3.10
  12   7   5   -1.90    2.30
  12  -7   5   -4.00    2.60
 -12  -7  -5   -1.20    2.70
  12   7   6    4.90    3.80
 -12  -7  -6    2.10    2.90
  12  -7   6   -4.00    3.30
  12   7   7   -1.60    3.40
  12  -7   7   -4.20    3.40
 -12  -7  -7   -2.20    2.70
  12  -8 -11   13.30    5.70
 -12  -8  11   -0.80    3.40
  12  -8 -10    5.50    4.10
 -12  -8  10    1.00    3.00
  12  -8  -9    0.60    3.60
 -12  -8   9   -3.00    2.50
  12  -8  -8    1.60    3.40
 -12  -8   8    1.70    3.40
 -12  -8   8    2.60    2.80
 -12  -8   7   -0.10    2.50
 -12  -8   7   -3.60    2.00
  12  -8  -7    0.10    3.00
  12   8  -6    1.00    2.40
  12  -8  -6    1.40    3.20
 -12  -8   6    1.30    2.50
  12   8  -5    1.70    2.50
 -12   8   5   -1.00    2.60
 -12  -8   5    0.40    2.30
 -12   8   4   -1.40    2.30
  12   8  -4    0.20    2.40
 -12  -8   4   -2.90    1.80
  12  -8  -4    2.20    1.60
 -12   8   3    0.90    2.60
  12   8  -3    0.50    2.30
  12  -8  -3    2.90    1.80
 -12  -8   3    4.00    2.80
  12   8  -2   14.00    3.60
 -12   8   2   17.80    4.40
  12  -8  -2   18.40    3.30
 -12  -8   2   22.80    5.00
  12   8  -1   26.50    4.50
 -12   8   1   17.50    4.40
  12  -8  -1   25.60    3.90
 -12  -8   1   22.00    4.90
 -12   8   0  405.86   16.50
  12   8   0  408.06   15.40
  12  -8   0  406.06   14.20
 -12  -8   0  415.96   17.50
  12   8   1    8.50    3.20
 -12   8  -1    7.90    3.10
 -12  -8  -1    8.60    3.60
  12  -8   1    3.20    2.70
  12   8   2   29.70    4.90
 -12   8  -2   34.60    5.50
 -12  -8  -2   36.50    6.20
  12  -8   2   32.20    5.30
 -12   8  -3   87.89    6.90
  12   8   3   97.49    7.50
 -12  -8  -3  104.99    8.90
  12  -8   3   86.39    7.60
  12   8   4    3.50    2.80
 -12  -8  -4    0.90    2.70
  12  -8   4    1.60    3.40
  12   8   5    7.80    3.80
  12  -8   5   -0.40    2.90
 -12  -8  -5   -1.40    2.20
  12   8   6   -0.50    3.30
 -12  -8  -6   -0.20    2.50
  12  -8   6   -4.90    2.80
  12   8   7    2.70    3.60
 -12  -8  -7   -2.00    2.80
 -12  -9  11    2.10    3.50
  12  -9 -11    2.40    4.00
 -12  -9  10    7.70    3.90
  12  -9 -10    2.80    4.50
  12  -9  -9   -0.40    3.30
 -12  -9   9    0.90    3.10
 -12  -9   8    7.20    3.90
 -12  -9   8    8.50    3.40
  12  -9  -8   14.00    5.20
 -12  -9   7   -0.20    2.20
 -12  -9   7   -4.10    2.30
  12  -9  -7   -0.30    3.20
  12   9  -6    1.40    2.60
  12  -9  -6   -2.70    2.60
 -12  -9   6    0.70    2.00
  12   9  -5    1.10    2.90
  12  -9  -5    0.40    3.00
 -12  -9   5    2.90    2.80
  12   9  -4   25.10    4.50
 -12   9   4   30.90    6.00
 -12  -9   4   40.70    6.10
  12   9  -3    2.60    2.40
 -12   9   3    0.20    2.60
  12  -9  -3    0.40    1.60
 -12  -9   3   -1.60    2.00
 -12   9   2   -1.10    2.20
  12   9  -2   -2.00    1.90
 -12  -9   2    1.00    2.50
  12  -9  -2   -1.50    1.60
 -12   9   1    6.10    3.10
  12   9  -1    1.00    2.30
 -12  -9   1    8.30    3.70
  12  -9  -1    5.20    2.50
 -12   9   0    6.00    3.10
  12   9   0    5.40    2.90
 -12  -9   0   12.10    4.10
  12  -9   0    0.20    2.10
 -12   9  -1   40.90    6.00
  12   9   1   33.40    5.20
  12  -9   1   41.00    5.50
 -12  -9  -1   37.10    6.30
 -12   9  -2    5.40    2.80
  12   9   2    2.10    2.40
  12  -9   2    4.00    3.10
 -12  -9  -2    1.90    3.10
 -12   9  -3    3.90    2.40
  12   9   3    4.50    2.80
 -12  -9  -3    8.30    3.90
  12  -9   3    1.50    3.10
  12   9   4    4.20    3.10
 -12  -9  -4    3.30    3.40
  12  -9   4    2.30    3.50
  12   9   5   -0.60    3.10
  12  -9   5   -1.50    2.90
 -12  -9  -5    0.50    2.80
  12   9   6    9.00    3.80
  12  -9   6    0.60    3.60
 -12  -9  -6    0.10    3.00
  12   9   7   -1.30    3.50
 -12  -9  -7   -0.60    3.00
  12  -9   7   -2.00    3.70
 -12 -10  10   13.30    5.10
  12 -10 -10   12.20    5.30
 -12 -10   9   13.40    4.60
  12 -10  -9   17.10    5.90
 -12 -10   8    4.10    2.80
  12 -10  -8    3.20    4.00
 -12 -10   8   -1.30    2.90
 -12 -10   7   27.60    5.30
 -12 -10   7   20.20    5.00
  12 -10  -7   22.00    5.90
  12  10  -6    2.50    2.60
 -12 -10   6    5.20    2.90
  12 -10  -6    4.10    3.60
  12  10  -5    5.20    3.20
 -12 -10   5    1.40    2.60
  12 -10  -5    2.30    3.10
  12  10  -4    4.00    2.90
 -12 -10   4    1.20    2.60
  12 -10  -4    4.30    3.30
 -12  10   3    7.60    3.60
  12  10  -3    6.90    3.10
 -12 -10   3    9.20    3.70
 -12  10   2   58.59    7.70
  12  10  -2   61.99    7.10
  12 -10  -2   53.69    4.60
 -12 -10   2   55.29    7.40
  12  10  -1    1.80    2.50
 -12  10   1    0.40    2.40
  12 -10  -1    5.80    2.60
 -12 -10   1    2.00    2.90
  12  10   0    1.90    2.50
 -12  10   0   -1.30    2.00
  12 -10   0   -0.10    2.20
 -12 -10   0   -0.80    2.30
  12  10   1    7.80    3.10
 -12  10  -1    8.60    3.10
 -12 -10  -1    7.30    3.70
  12 -10   1   12.10    3.80
 -12  10  -2   20.60    4.40
  12  10   2   26.30    4.80
 -12 -10  -2   21.30    5.10
  12 -10   2   26.00    5.10
 -12  10  -3    5.10    2.80
  12  10   3    3.60    2.50
 -12 -10  -3    4.20    3.50
  12 -10   3    5.40    3.60
  12  10   4    1.40    2.50
  12 -10   4    1.50    3.10
 -12 -10  -4    2.40    3.30
  12  10   5   -0.50    2.40
 -12 -10  -5   -0.50    2.60
  12 -10   5   -4.80    2.80
  12  10   6    1.40    3.30
 -12 -10  -6   -0.20    3.00
  12 -10   6   -2.00    3.50
  12 -10   7    1.80    4.60
  12 -11 -10    5.60    4.80
 -12 -11  10    3.40    4.30
  12 -11  -9   21.30    6.70
 -12 -11   9   12.70    5.20
 -12 -11   8   23.10    5.40
  12 -11  -8   18.20    5.70
 -12 -11   7    0.40    3.10
  12 -11  -7    2.90    4.10
 -12 -11   7    5.60    3.30
  12  11  -6    3.60    2.90
 -12 -11   6    9.50    3.70
  12 -11  -6   10.40    4.70
  12  11  -5   21.90    4.80
 -12 -11   5   15.50    4.20
  12 -11  -5   17.00    5.40
  12  11  -4    3.60    2.70
 -12 -11   4    0.60    2.40
  12 -11  -4    3.60    3.60
  12  11  -3    4.80    3.10
 -12 -11   3    3.60    3.00
  12 -11  -3    4.00    3.60
  12  11  -2    0.20    2.30
 -12 -11   2   -1.10    2.30
  12 -11  -2   -0.50    2.50
  12  11  -1   11.60    3.60
 -12  11   1   10.20    3.80
 -12 -11   1   10.70    4.10
  12 -11  -1   17.20    3.60
 -12  11   0    7.20    3.30
  12  11   0    3.50    2.50
 -12 -11   0    9.40    4.00
  12 -11   0    3.90    2.70
  12  11   1   31.30    5.40
 -12  11  -1   36.60    5.90
 -12 -11  -1   39.40    6.60
  12 -11   1   33.30    5.20
 -12  11  -2    3.40    2.60
  12  11   2    7.40    3.50
 -12 -11  -2    6.30    3.90
  12 -11   2    8.80    3.90
  12  11   3    1.40    2.60
  12 -11   3    0.80    3.20
 -12 -11  -3   -0.50    2.70
  12  11   4    3.30    3.00
 -12 -11  -4    4.40    3.50
  12 -11   4    0.60    3.70
  12  11   5    2.90    3.40
 -12 -11  -5    4.30    3.80
  12 -11   5    6.20    4.40
  12  11   6    2.90    3.60
  12 -11   6    0.20    4.20
 -12 -11  -6    4.80    4.00
  12 -12 -10   -2.30    4.20
  12 -12  -9   12.20    5.20
 -12 -12   9   -1.60    3.00
  12 -12  -8    9.80    5.00
 -12 -12   8    7.00    4.40
 -12 -12   7   85.79    7.90
  12 -12  -7  106.19   12.00
  12  12  -6    0.30    2.70
 -12 -12   6   -2.50    2.60
  12 -12  -6   -5.70    2.70
  12  12  -5    8.70    3.70
 -12 -12   5    4.60    3.00
  12 -12  -5    3.30    3.90
  12  12  -4   -6.10    1.80
  12 -12  -4    2.10    3.40
 -12 -12   4   -0.90    2.20
  12  12  -3    7.60    3.60
 -12 -12   3    6.20    3.60
  12 -12  -3    8.00    4.20
  12  12  -2    2.50    2.60
 -12 -12   2   -0.80    2.30
  12 -12  -2    2.20    3.20
  12  12  -1    1.10    2.30
  12 -12  -1    8.10    4.70
 -12 -12   1   12.90    4.40
  12 -12  -1    8.20    3.70
  12  12   0   30.80    5.20
  12 -12   0   25.60    4.50
  12 -12   0   21.80    5.00
 -12 -12   0   26.60    5.80
  12  12   1    4.70    2.90
  12 -12   1    3.50    3.00
  12 -12   1    1.30    2.50
 -12 -12  -1    2.40    3.30
  12  12   2    3.50    2.80
 -12 -12  -2   -0.40    2.80
  12 -12   2    2.10    2.80
  12 -12   2   -2.40    2.80
  12  12   3    3.90    2.60
 -12 -12  -3    2.40    3.50
  12 -12   3    5.00    3.80
  12  12   4    6.40    3.30
  12 -12   4    7.50    4.40
 -12 -12  -4    4.30    3.80
  12  12   5    2.70    3.10
  12 -12   5    2.00    4.10
 -12 -12  -5    2.10    3.40
  12  12   6    7.80    3.70
 -12 -12  -6    3.00    3.60
  12 -12   6   12.20    5.50
 -12 -13   9   -2.50    3.60
  12 -13  -9    2.80    4.80
 -12 -13   8   31.40    6.20
  12 -13  -8   47.10    9.00
 -12 -13   7   -0.70    2.70
  12 -13  -7    3.80    4.20
  12  13  -6    1.50    2.80
  12 -13  -6    8.40    5.10
 -12 -13   6    2.50    3.10
  12  13  -5   23.30    5.00
 -12 -13   5   34.90    6.10
  12 -13  -5   38.40    7.50
  12  13  -4   -1.00    2.50
 -12 -13   4    4.00    3.30
  12 -13  -4   -1.20    3.40
  12  13  -3   -0.70    2.00
  12 -13  -3    2.40    3.50
 -12 -13   3    2.40    2.80
  12  13  -2   19.90    4.40
  12 -13  -2   19.90    5.20
 -12 -13   2   22.10    5.40
  12  13  -1   24.20    4.70
 -12 -13   1   35.50    6.70
  12 -13  -1   23.50    5.30
  12  13   0   -1.10    2.40
 -12 -13   0    4.00    3.60
  12 -13   0    2.40    2.90
  12 -13   0   -2.50    2.70
  12  13   1    3.10    2.50
 -12 -13  -1   -1.00    2.70
  12 -13   1    0.10    2.50
  12 -13   1    3.50    2.90
  12  13   2   15.50    4.00
 -12 -13  -2   19.10    5.50
  12 -13   2   15.90    4.30
  12 -13   2   25.70    5.00
  12  13   3    1.80    2.40
  12 -13   3   -0.60    3.30
 -12 -13  -3   -1.30    2.80
  12  13   4    2.40    2.70
 -12 -13  -4    1.60    3.60
  12 -13   4    4.30    3.60
  12  13   5   14.70    4.60
  12 -13   5    4.50    4.00
 -12 -13  -5   17.40    6.00
  12 -14  -8   -3.40    3.90
 -12 -14   8    0.00    3.90
  12  14  -7   10.40    4.20
  12 -14  -7   12.90    5.50
  12  14  -6    2.50    3.20
  12 -14  -6    6.80    4.80
 -12 -14   6   13.30    4.50
  12  14  -5   13.40    4.50
  12 -14  -5    3.80    4.20
 -12 -14   5    4.30    3.20
  12  14  -4    3.60    3.40
 -12 -14   4   -0.40    2.50
  12 -14  -4    1.50    4.00
  12  14  -3    1.30    2.50
 -12 -14   3   -5.40    1.80
  12 -14  -3    3.90    3.70
  12  14  -2    7.30    3.70
 -12 -14   2    3.20    3.40
  12 -14  -2    5.60    3.60
  12  14  -1    3.30    2.90
 -12 -14   1   10.50    4.40
  12 -14  -1   15.30    5.00
  12  14   0    1.00    2.70
 -12 -14   0   -1.40    2.90
  12 -14   0    2.40    3.40
  12  14   1    1.70    2.50
  12 -14   1    2.10    4.70
  12 -14   1    4.40    3.10
 -12 -14  -1    4.30    3.80
  12  14   2    4.40    2.90
  12 -14   2    0.60    3.20
 -12 -14  -2    0.70    3.30
  12 -14   2    4.80    3.40
  12  14   3    4.60    2.80
 -12 -14  -3    5.40    4.20
  12 -14   3    1.80    3.50
  12  14   4    5.90    3.00
  12 -14   4    7.70    4.00
 -12 -14  -4    1.20    3.70
  12  14   5   26.20    5.60
 -12 -14  -5   31.00    7.30
  12 -14   5   31.60    7.00
  12 -15  -8   13.40    6.10
 -12 -15   8   -0.70    3.50
  12  15  -7   -1.60    3.50
  12 -15  -7    0.70    4.20
  12  15  -6    3.60    3.50
  12 -15  -6    7.40    4.70
 -12 -15   6    3.00    3.30
  12  15  -5    6.80    3.70
 -12 -15   5   13.10    4.70
  12 -15  -5    0.50    4.00
  12  15  -4    2.90    3.10
  12 -15  -4   -3.30    3.00
 -12 -15   4    2.20    3.00
  12  15  -3    4.70    3.30
 -12 -15   3    2.50    3.30
  12 -15  -3    6.60    4.10
  12  15  -2   -5.10    2.10
  12 -15  -2    2.20    3.20
 -12 -15   2    2.80    3.50
  12  15  -1    0.40    2.60
 -12 -15   1    1.30    3.40
  12 -15  -1   -3.70    2.40
  12  15   0    5.00    3.10
  12 -15   0    1.80    3.00
 -12 -15   0    2.50    3.40
  12  15   1    4.70    3.10
  12 -15   1    7.80    4.10
 -12 -15  -1   17.20    5.50
  12  15   2   27.10    5.10
 -12 -15  -2   20.20    6.10
  12  15   3   34.90    5.70
  12 -15   3   15.80    5.00
 -12 -15  -3   29.30    7.10
  12  15   4    2.10    3.00
  12 -15   4    0.20    3.70
 -12 -15  -4    6.50    4.60
  12  16  -7    1.60    3.80
  12 -16  -7    5.60    5.10
  12  16  -6    6.50    3.60
 -12 -16   6    3.30    3.20
  12 -16  -6   12.30    5.90
  12  16  -5   15.70    4.60
  12 -16  -5   36.50    7.70
 -12 -16   5   19.50    5.40
  12  16  -4    0.20    2.70
  12 -16  -4   -0.80    4.20
 -12 -16   4   -1.70    2.50
  12  16  -3   15.80    4.20
 -12 -16   3   28.60    6.30
  12 -16  -3   22.30    6.30
  12  16  -2    6.50    3.90
 -12 -16   2   16.50    5.40
  12 -16  -2    3.70    3.70
  12  16  -1   -3.10    2.00
  12 -16  -1    1.20    3.30
 -12 -16   1   -2.30    2.80
  12  16   0    1.10    2.60
 -12 -16   0    4.10    4.20
  12 -16   0    0.50    2.90
  12  16   1    9.80    3.50
 -12 -16  -1    7.90    4.80
  12 -16   1   11.00    4.80
  12  16   2   24.40    5.10
 -12 -16  -2   19.70    6.00
  12  16   3    6.50    3.40
 -12 -16  -3    2.70    4.00
  12  17  -6    5.70    3.90
  12 -17  -6   10.50    6.30
  12  17  -5    3.10    3.40
  12 -17  -5   12.20    6.30
 -12 -17   5   10.80    4.40
  12  17  -4    3.50    3.80
  12 -17  -4    4.60    4.40
 -12 -17   4    8.60    4.10
  12  17  -3   13.80    4.40
  12 -17  -3   15.70    5.80
 -12 -17   3   11.20    5.20
  12  17  -2   -0.40    2.60
 -12 -17   2    3.00    3.60
  12 -17  -2    4.10    4.20
  12  17  -1    3.30    3.10
 -12 -17   1    6.40    4.60
  12 -17  -1    5.90    4.20
  12  17   0   14.10    4.50
  12 -17   0   11.40    4.80
 -12 -17   0   19.00    6.00
  12  17   1    4.40    3.20
 -12 -17  -1    0.10    3.90
  12 -17   1    2.60    3.60
  12  17   2    3.10    3.40
 -12 -17  -2    1.30    4.50
  12  18  -5   25.30    5.60
 -12 -18   5   33.20    6.70
  12 -18  -5   35.00    8.30
  12  18  -4   50.09    7.50
 -12 -18   4   51.99    8.40
  12 -18  -4   57.19    9.90
  12  18  -3    4.50    3.60
 -12 -18   3   12.30    5.00
  12 -18  -3   19.00    6.00
  12  18  -2   15.50    4.60
  12 -18  -2   14.20    5.60
 -12 -18   2   25.00    6.40
  12  18  -1   12.80    4.30
 -12 -18   1   11.70    5.30
  12 -18  -1    5.80    4.20
  12  18   0   36.60    6.30
  12 -18   0   14.90    5.40
 -12 -18   0   20.90    6.40
  12  18   1   -4.40    2.10
 -12 -18  -1   -3.00    3.60
  12 -19  -3    9.50    5.50
  12  19  -2   16.90    4.80
 -12 -19   2   29.20    6.80
  12 -19  -2   27.30    7.60
  12  19  -1   16.20    4.70
  12 -19  -1   12.50    5.10
  13   0 -11   12.40    5.50
  13   0 -11    0.10    2.90
  13   0 -10    3.90    3.00
 -13   0  10    3.00    3.90
  13   0  -9    1.40    2.30
 -13   0   9   -0.90    2.90
  13   0  -8    4.40    2.60
 -13   0   8   10.80    4.30
 -13   0   7    7.20    3.20
  13   0  -7    2.80    2.20
 -13   0   6   44.10    6.30
  13   0  -6   35.40    4.70
 -13   0   5    1.80    2.40
  13   0  -5    0.70    1.90
 -13   0   4   -0.50    2.20
  13   0  -4   -0.90    1.70
 -13   0   3   -0.10    1.70
  13   0  -3   -1.10    1.60
  13   0  -2  219.98   10.00
 -13   0   2  208.68   11.50
 -13   0   1    1.80    2.40
  13   0  -1   -0.40    2.10
  13   0   0    1.20    1.90
 -13   0   0    0.50    2.30
  13   0   1   -1.60    1.70
 -13   0  -1   -0.10    2.00
  13   0   2   -1.00    2.20
 -13   0  -2   -1.60    1.60
  13   0   3   -0.50    2.10
 -13   0  -3    1.60    2.30
 -13   0  -4   40.90    6.30
  13   0   4   31.60    5.70
 -13   0  -5    1.00    2.00
  13   0   5    1.20    2.90
  13   0   6    4.80    4.30
  13   0   7   -5.80    2.70
  13  -1 -11    8.10    4.10
  13   1 -10   34.80    5.70
 -13  -1  10   33.80    6.30
  13  -1 -10   45.80    6.00
 -13   1   9   19.80    5.20
  13   1  -9   30.00    5.00
  13  -1  -9   32.00    4.90
 -13  -1   9   38.40    6.80
  13   1  -8    0.40    2.30
 -13   1   8    1.40    3.20
 -13  -1   8   -1.30    2.60
  13  -1  -8    1.70    2.00
 -13   1   7   -0.60    2.30
  13   1  -7    1.40    2.10
  13  -1  -7   -0.80    1.70
 -13  -1   7   -0.60    2.20
 -13   1   6    9.90    3.80
  13   1  -6    7.20    3.00
 -13  -1   6    6.80    3.10
  13  -1  -6    5.10    2.30
  13   1  -5   26.50    4.30
 -13   1   5   29.60    5.30
  13  -1  -5   33.40    4.50
 -13  -1   5   28.20    5.20
 -13   1   4   70.09    7.80
  13   1  -4   79.99    6.30
 -13  -1   4   65.89    7.60
  13  -1  -4   82.49    6.10
  13   1  -3    5.90    2.70
 -13   1   3    1.10    2.00
 -13  -1   3    4.40    2.60
  13  -1  -3    7.40    2.80
 -13   1   2  156.08    9.70
  13   1  -2  160.58    8.80
  13  -1  -2  152.18    8.30
 -13  -1   2  156.98    9.90
  13   1  -1    2.00    2.10
 -13   1   1    6.10    3.00
 -13  -1   1    0.50    2.30
  13  -1  -1    7.60    2.80
  13   1   0   25.20    4.40
 -13   1   0   25.00    4.90
 -13  -1   0   28.50    5.10
  13  -1   0   22.20    4.10
  13   1   1    0.90    2.40
 -13   1  -1    2.80    2.50
 -13  -1  -1    3.40    2.70
  13  -1   1    0.50    2.10
 -13   1  -2   29.60    5.20
  13   1   2   18.90    4.50
  13  -1   2   25.70    4.90
 -13  -1  -2   20.70    4.50
 -13   1  -3    8.10    3.40
  13   1   3    5.80    3.20
 -13  -1  -3    5.90    3.10
  13  -1   3    9.80    3.70
  13   1   4   57.39    7.30
 -13   1  -4   55.59    7.00
  13  -1   4   47.10    6.90
 -13  -1  -4   42.30    6.20
  13   1   5   -0.60    2.90
 -13   1  -5    0.70    2.10
  13  -1   5    1.20    3.20
 -13  -1  -5   -2.10    2.20
  13   1   6   -3.80    3.20
 -13  -1  -6    3.60    2.90
  13  -1   6    1.20    3.30
  13   1   7   10.00    5.10
  13  -1   7    0.70    3.80
 -13  -2  11   -2.50    2.70
  13  -2 -11    9.30    4.60
  13  -2 -10    2.30    3.20
 -13  -2  10   -1.70    3.00
  13  -2 -10    5.80    3.80
 -13   2   9   34.60    6.50
  13   2  -9   41.40    6.10
 -13  -2   9   42.10    6.50
  13  -2  -9   34.00    4.90
  13   2  -8    3.30    2.40
 -13   2   8    1.70    2.70
 -13  -2   8    2.90    3.10
  13  -2  -8    2.10    2.30
  13   2  -7    8.50    3.10
 -13   2   7   12.30    3.90
  13  -2  -7    8.60    2.80
 -13  -2   7   15.30    4.50
  13   2  -6    0.40    2.20
 -13   2   6   -2.60    2.00
  13  -2  -6   -0.30    2.00
 -13  -2   6    1.20    2.60
  13   2  -5    1.50    2.00
 -13   2   5    8.00    3.40
 -13  -2   5    5.20    2.90
  13  -2  -5    4.70    2.30
 -13   2   4    5.30    3.10
  13   2  -4    9.60    2.90
  13  -2  -4    4.10    2.10
 -13  -2   4    6.50    3.10
 -13   2   3    7.40    3.30
  13   2  -3    7.20    2.70
  13  -2  -3    4.60    2.20
 -13  -2   3    6.60    3.10
  13   2  -2   16.90    3.80
 -13   2   2   16.70    4.20
  13  -2  -2   18.00    3.40
 -13  -2   2   20.60    4.30
 -13   2   1   34.90    5.70
  13   2  -1   42.30    5.40
 -13  -2   1   33.00    5.60
  13  -2  -1   33.30    4.50
 -13   2   0    0.30    2.20
  13   2   0    1.40    2.10
 -13  -2   0    0.20    1.90
  13  -2   0    0.50    2.00
  13   2   1   15.50    3.60
 -13   2  -1   17.00    4.30
  13  -2   1   23.00    4.30
 -13  -2  -1   21.20    4.60
  13   2   2   -0.30    2.20
 -13   2  -2    3.50    2.50
 -13  -2  -2   -1.30    1.80
  13  -2   2    1.70    2.60
 -13   2  -3    0.20    2.10
  13   2   3    0.70    2.50
  13  -2   3   -1.30    2.30
 -13  -2  -3    3.20    2.80
  13   2   4   37.90    6.20
 -13   2  -4   28.00    5.00
 -13  -2  -4   27.90    5.30
  13  -2   4   29.30    5.70
  13   2   5    4.80    3.70
 -13   2  -5    1.50    2.50
  13  -2   5   -1.90    3.30
 -13  -2  -5   -0.80    2.50
  13   2   6   13.30    4.80
  13  -2   6   23.80    5.80
 -13  -2  -6   25.30    5.30
  13   2   7   -4.40    3.00
  13  -2   7    1.60    3.80
  13  -3 -11   11.70    4.60
 -13  -3  11   10.10    3.90
 -13  -3  10   12.30    4.30
 -13  -3  10    8.30    4.30
  13  -3 -10    7.80    4.30
 -13   3   9   10.00    4.50
  13   3  -9   15.40    4.30
 -13  -3   9    5.60    3.40
  13  -3  -9   17.70    3.90
  13   3  -8   13.80    3.90
 -13   3   8   12.90    4.40
  13  -3  -8   25.40    4.10
 -13  -3   8   23.80    5.40
 -13   3   7   58.39    7.90
  13   3  -7   60.49    6.70
 -13  -3   7   69.89    8.00
  13  -3  -7   73.39    5.70
 -13   3   6    2.70    2.90
  13   3  -6    1.70    2.20
 -13  -3   6   -0.60    2.10
  13  -3  -6    3.90    2.10
 -13   3   5  109.49    8.70
  13   3  -5  107.49    7.40
 -13  -3   5  121.29    8.80
  13  -3  -5  113.79    6.70
  13   3  -4    2.50    2.20
 -13   3   4   11.30    3.90
  13  -3  -4    6.20    2.50
 -13  -3   4    7.60    3.30
 -13   3   3   -2.20    1.90
  13   3  -3    0.00    1.80
 -13  -3   3    0.00    2.10
  13  -3  -3   -0.20    1.80
  13   3  -2    2.10    2.10
 -13   3   2   -0.20    2.30
  13  -3  -2    0.10    1.90
 -13  -3   2    1.20    2.40
 -13   3   1    3.80    2.90
  13   3  -1    5.10    2.50
 -13  -3   1    2.20    2.40
  13  -3  -1    5.70    2.60
  13   3   0   -0.40    2.30
 -13   3   0   -1.10    1.90
  13  -3   0    1.80    2.30
 -13  -3   0    0.50    2.30
 -13   3  -1    7.90    3.30
  13   3   1    7.60    3.00
 -13  -3  -1    8.40    3.30
  13  -3   1    9.00    3.20
  13   3   2   13.80    3.90
 -13   3  -2   13.30    3.70
  13  -3   2   13.80    3.90
 -13  -3  -2   13.10    3.90
  13   3   3   10.00    3.50
 -13   3  -3    9.60    3.20
  13  -3   3    3.70    3.50
 -13  -3  -3    4.60    2.80
 -13   3  -4    0.00    2.10
  13   3   4    1.20    2.70
 -13  -3  -4    1.80    2.80
  13  -3   4    0.10    2.80
 -13   3  -5    0.10    2.20
  13   3   5   -0.90    3.00
 -13  -3  -5    2.30    2.70
  13  -3   5   -3.00    2.60
  13   3   6    3.50    4.00
 -13  -3  -6   -2.60    2.10
  13  -3   6    2.40    3.60
  13   3   7   11.10    4.80
  13  -3   7    9.10    5.40
 -13  -4  11   -4.80    2.40
  13  -4 -11    2.90    3.60
  13  -4 -10    5.70    4.00
 -13  -4  10    9.70    4.00
 -13  -4  10    5.30    3.70
 -13  -4   9   10.70    4.30
  13  -4  -9   21.60    5.50
 -13   4   8    8.30    3.90
  13   4  -8   13.10    3.80
 -13  -4   8   14.60    4.40
  13  -4  -8   11.50    2.80
  13   4  -7   14.60    3.60
 -13   4   7   19.80    5.00
  13  -4  -7   24.20    3.80
 -13  -4   7   19.30    4.60
 -13   4   6    1.60    2.90
  13   4  -6    1.00    2.50
 -13  -4   6    5.50    3.10
  13  -4  -6    5.70    2.30
  13   4  -5    4.00    2.90
 -13   4   5    5.30    3.30
 -13  -4   5   12.90    3.90
  13  -4  -5    5.80    2.40
 -13   4   4    5.40    3.10
  13   4  -4    6.10    2.90
  13  -4  -4    6.40    2.40
 -13  -4   4    5.70    3.00
  13   4  -3   -0.10    1.90
 -13   4   3    5.90    3.20
  13  -4  -3    0.00    1.70
 -13  -4   3    1.80    2.40
  13   4  -2   39.70    5.30
 -13   4   2   36.50    5.90
 -13  -4   2   37.50    6.00
  13  -4  -2   42.90    5.10
  13   4  -1   34.40    5.10
 -13   4   1   41.80    6.30
 -13  -4   1   42.40    6.20
  13  -4  -1   39.40    5.20
  13   4   0   12.00    3.60
 -13   4   0    3.80    2.70
  13  -4   0    4.10    2.30
 -13  -4   0    1.30    2.40
  13   4   1    6.10    2.80
 -13   4  -1    5.50    2.90
  13  -4   1    6.00    3.10
 -13  -4  -1    9.30    3.60
 -13   4  -2    1.80    2.30
  13   4   2    2.40    2.60
  13  -4   2   -4.20    2.30
 -13  -4  -2    5.40    3.10
 -13   4  -3    4.30    2.90
  13   4   3    1.00    2.70
 -13  -4  -3    3.10    2.40
  13  -4   3    0.30    2.60
  13   4   4    0.50    2.60
 -13   4  -4    3.50    2.60
 -13  -4  -4    0.90    2.30
  13  -4   4    5.30    3.70
  13   4   5    2.50    3.50
 -13  -4  -5   -0.80    2.00
  13  -4   5    4.30    3.80
  13   4   6   38.80    6.60
 -13  -4  -6   29.70    5.60
  13  -4   6   36.90    7.20
  13   4   7   12.20    5.30
  13  -4   7   13.70    5.80
  13  -5 -11   13.70    5.30
 -13  -5  11    1.80    3.60
  13  -5 -10    2.00    3.80
 -13  -5  10    4.10    3.30
  13  -5  -9   25.00    5.90
 -13  -5   9   14.60    4.20
 -13  -5   9   18.00    4.60
  13   5  -8   -0.80    2.30
 -13   5   8    4.40    3.70
 -13  -5   8    4.10    3.00
  13   5  -7    6.60    3.10
 -13   5   7    9.50    4.00
 -13  -5   7    7.20    3.50
  13  -5  -7   10.70    2.70
  13   5  -6   15.10    3.90
 -13   5   6   25.90    5.60
 -13  -5   6   23.80    5.20
  13  -5  -6   16.90    3.20
  13   5  -5   51.89    6.30
 -13   5   5   50.79    7.30
  13  -5  -5   54.09    4.60
 -13  -5   5   42.70    6.40
 -13   5   4    3.30    2.80
  13   5  -4   -0.90    1.80
 -13  -5   4   -3.20    1.50
  13  -5  -4   -0.20    1.50
  13   5  -3   11.40    3.40
 -13   5   3   11.20    3.80
  13  -5  -3   14.20    3.30
 -13  -5   3   12.80    3.80
  13   5  -2  148.89    8.80
 -13   5   2  139.99    9.70
 -13  -5   2  147.69    9.90
  13  -5  -2  138.39    7.60
  13   5  -1  166.68    9.40
 -13   5   1  166.58   10.40
 -13  -5   1  167.08   10.60
  13  -5  -1  163.98    8.50
  13   5   0   10.30    3.30
 -13   5   0   14.80    4.00
  13  -5   0    9.60    2.90
 -13  -5   0    9.50    3.60
 -13   5  -1   80.09    7.10
  13   5   1   76.89    6.60
 -13  -5  -1   62.39    7.70
  13  -5   1   72.19    6.30
 -13   5  -2   -0.80    2.00
  13   5   2   -0.80    2.20
  13  -5   2   -1.60    2.20
 -13  -5  -2   -2.50    1.90
 -13   5  -3   25.90    4.70
  13   5   3   21.10    4.60
  13  -5   3   23.40    4.90
 -13  -5  -3   21.60    4.90
 -13   5  -4   -0.10    2.10
  13   5   4    5.90    3.50
 -13  -5  -4    0.40    2.50
  13  -5   4   -3.20    2.50
  13   5   5   -2.90    2.60
  13  -5   5    1.70    3.60
 -13  -5  -5    1.50    2.70
  13   5   6    1.80    3.30
 -13  -5  -6    1.70    2.70
  13  -5   6    9.60    4.80
  13   5   7    9.10    5.10
 -13  -5  -7   11.50    4.40
  13  -5   7   10.90    5.20
  13  -6 -11    9.40    5.10
 -13  -6  11    0.50    3.60
 -13  -6  10    6.30    3.90
  13  -6 -10    8.00    4.50
 -13  -6   9   38.30    6.40
 -13  -6   9   32.90    6.20
  13  -6  -9   24.00    6.00
  13   6  -8   -1.10    2.50
  13  -6  -8    4.60    4.00
 -13  -6   8   -2.80    2.00
 -13   6   7    5.60    3.70
  13   6  -7    6.00    3.20
 -13  -6   7    5.80    3.30
  13   6  -6    9.90    3.30
 -13   6   6   11.70    4.30
  13  -6  -6   12.90    2.80
 -13  -6   6   12.90    4.30
 -13   6   5   -0.80    2.60
  13   6  -5    2.60    2.50
 -13  -6   5   -0.60    2.30
  13  -6  -5    0.80    1.70
 -13   6   4   36.20    6.20
  13   6  -4   31.60    5.10
  13  -6  -4   29.30    3.90
 -13  -6   4   27.20    5.30
  13   6  -3   -1.10    2.00
 -13   6   3    2.50    2.70
  13  -6  -3    1.30    1.80
 -13  -6   3    0.70    2.50
 -13   6   2   21.50    4.70
  13   6  -2   31.90    5.00
 -13  -6   2   20.80    4.80
  13  -6  -2   22.20    3.70
  13   6  -1    2.00    2.50
 -13   6   1    0.10    2.40
 -13  -6   1   -0.30    2.30
  13  -6  -1    3.90    2.50
  13   6   0    1.90    2.40
 -13   6   0    4.40    2.80
 -13  -6   0   -1.90    2.00
  13  -6   0   -2.90    1.80
  13   6   1    9.90    3.30
 -13   6  -1    6.20    3.20
 -13  -6  -1    5.90    3.20
  13  -6   1    6.90    3.10
  13   6   2   45.40    6.00
 -13   6  -2   57.59    7.00
  13  -6   2   53.59    6.70
 -13  -6  -2   46.40    7.10
 -13   6  -3    1.60    2.50
  13   6   3    4.00    3.30
  13  -6   3    0.90    3.20
 -13  -6  -3    1.50    2.60
 -13   6  -4    2.70    2.40
  13   6   4    2.20    2.70
 -13  -6  -4    1.80    2.80
  13  -6   4   -2.40    3.00
  13   6   5    4.00    3.30
  13  -6   5    2.00    3.60
 -13  -6  -5    0.00    2.30
  13   6   6    1.30    3.40
 -13  -6  -6   -1.60    2.30
  13  -6   6    2.00    3.80
  13   6   7   16.10    5.40
 -13  -6  -7    8.80    4.10
  13  -6   7    8.70    5.20
 -13  -7  11   61.39    8.60
  13  -7 -11   55.09    8.90
 -13  -7  10    5.10    4.00
  13  -7 -10    9.70    5.20
 -13  -7   9   28.90    5.60
  13  -7  -9   49.20    8.30
 -13  -7   9   42.60    6.40
  13   7  -8   15.90    4.10
  13  -7  -8   25.10    6.20
 -13  -7   8   27.80    5.60
  13   7  -7    6.20    3.10
 -13  -7   7   12.30    4.00
  13   7  -6    1.20    2.90
 -13   7   6    3.30    3.20
 -13  -7   6    2.60    2.80
 -13   7   5    6.90    3.70
  13   7  -5    7.20    3.00
 -13  -7   5    5.10    3.10
  13  -7  -5    5.40    2.30
  13   7  -4    1.30    2.30
 -13   7   4   -0.80    2.30
 -13  -7   4    0.10    2.30
  13  -7  -4    3.50    1.90
 -13   7   3    5.70    3.30
  13   7  -3    9.50    3.40
  13  -7  -3    7.50    2.60
 -13  -7   3    8.50    3.40
  13   7  -2    8.80    3.20
 -13   7   2   11.30    4.00
  13  -7  -2    3.80    2.20
 -13  -7   2    2.80    2.90
  13   7  -1  104.29    7.90
 -13   7   1  101.89    8.30
 -13  -7   1  118.99    9.10
  13  -7  -1  100.39    6.80
  13   7   0  113.49    8.10
 -13   7   0  140.49    9.40
 -13  -7   0  116.39    9.20
  13  -7   0  106.59    7.40
  13   7   1    0.00    2.30
 -13   7  -1    2.90    3.00
  13  -7   1   -2.30    2.30
 -13  -7  -1    0.40    1.90
  13   7   2   38.40    5.70
 -13   7  -2   36.20    5.50
  13  -7   2   31.70    5.20
 -13  -7  -2   37.30    6.50
  13   7   3   25.60    4.90
 -13   7  -3   25.80    4.80
  13  -7   3   15.30    4.50
 -13  -7  -3   21.50    5.20
  13   7   4    2.50    3.00
 -13  -7  -4    5.40    3.90
  13  -7   4    2.60    3.70
  13   7   5    2.70    2.80
 -13  -7  -5    1.60    2.90
  13  -7   5    3.40    3.60
  13   7   6    3.00    3.50
  13  -7   6   -6.40    2.90
 -13  -7  -6   -2.30    2.50
  13   7   7    1.60    4.00
 -13  -7  -7    2.20    3.00
  13  -7   7    0.90    4.60
  13  -8 -10    8.50    4.70
 -13  -8  10   -2.30    3.30
  13  -8  -9   -0.90    3.40
 -13  -8   9    4.40    3.30
 -13  -8   8    0.70    2.50
  13  -8  -8    8.60    4.50
  13   8  -7    2.70    2.90
  13  -8  -7    2.70    2.70
 -13  -8   7    2.40    2.70
 -13   8   6   31.70    6.50
  13   8  -6   32.10    5.40
 -13  -8   6   36.40    5.90
  13   8  -5    0.90    2.30
 -13   8   5    5.70    2.80
 -13  -8   5    1.60    2.50
  13   8  -4    2.20    2.60
 -13   8   4   -2.30    2.30
 -13  -8   4    3.90    2.90
  13  -8  -4    3.00    2.00
 -13   8   3   19.00    4.90
  13   8  -3   16.70    4.10
  13  -8  -3   20.80    3.40
 -13  -8   3   19.70    4.70
 -13   8   2   53.19    7.50
  13   8  -2   46.60    6.40
  13  -8  -2   42.80    4.90
 -13  -8   2   28.60    5.70
  13   8  -1   -0.50    2.40
 -13   8   1    0.70    2.40
  13  -8  -1    0.90    2.20
 -13  -8   1    2.30    2.80
 -13   8   0    0.80    2.50
  13   8   0    2.10    2.60
  13  -8   0    2.70    2.40
 -13  -8   0    0.30    2.50
 -13   8  -1    2.70    3.10
  13   8   1    4.30    2.80
  13  -8   1   10.60    3.30
 -13  -8  -1   -0.10    2.80
 -13   8  -2   53.09    6.90
  13   8   2   43.70    6.00
  13  -8   2   54.19    7.00
 -13  -8  -2   40.70    6.90
 -13   8  -3    9.00    3.50
  13   8   3   13.70    3.90
 -13  -8  -3    7.50    4.00
  13  -8   3    8.10    3.70
  13   8   4    6.00    3.50
 -13  -8  -4    0.80    3.00
  13  -8   4   -0.50    3.10
  13   8   5    1.90    3.10
 -13  -8  -5   -0.10    3.30
  13  -8   5    4.50    3.90
  13   8   6    2.70    3.40
  13  -8   6   -2.50    3.80
 -13  -8  -6    1.80    3.50
 -13  -9  10    0.40    4.00
  13  -9 -10   -4.20    3.40
 -13  -9   9    5.10    4.00
  13  -9  -9   12.30    5.40
 -13  -9   8    9.50    3.50
  13  -9  -8    7.60    4.50
  13   9  -7    9.30    3.70
  13  -9  -7    2.00    3.50
 -13  -9   7    6.00    3.10
  13   9  -6    1.50    3.00
  13  -9  -6   -2.40    2.90
 -13  -9   6   -0.40    2.20
 -13   9   5   16.60    5.00
  13   9  -5   12.30    3.90
 -13  -9   5   14.20    4.40
  13   9  -4   -2.20    2.40
 -13   9   4    0.70    2.90
 -13  -9   4    2.60    2.60
  13   9  -3   37.60    5.90
 -13   9   3   32.80    6.40
 -13  -9   3   25.50    5.30
  13  -9  -3   43.60    4.80
 -13   9   2    0.80    2.40
  13   9  -2    5.00    2.90
  13  -9  -2    3.70    2.40
 -13  -9   2    3.10    2.50
  13   9  -1    8.10    3.30
 -13   9   1    1.90    2.80
  13  -9  -1    6.30    2.70
 -13  -9   1    8.30    3.70
  13   9   0    2.20    2.60
 -13   9   0   -0.50    2.60
 -13  -9   0    4.50    3.40
  13  -9   0    0.40    2.30
  13   9   1   10.90    3.80
 -13   9  -1   11.40    3.70
  13  -9   1    1.90    3.10
 -13  -9  -1   12.60    4.50
 -13   9  -2    2.90    2.90
  13   9   2   -0.80    2.10
 -13  -9  -2    3.30    2.90
  13  -9   2    2.40    3.20
  13   9   3    0.50    2.80
 -13   9  -3    0.90    2.50
  13  -9   3    4.10    3.30
 -13  -9  -3    3.00    3.40
  13   9   4    5.90    3.50
  13  -9   4   -0.80    3.00
 -13  -9  -4    0.60    2.90
  13   9   5    4.30    3.70
  13  -9   5    1.10    3.50
 -13  -9  -5   -4.30    3.10
  13   9   6    3.30    3.80
  13  -9   6   -0.10    3.60
 -13  -9  -6    0.80    3.10
  13 -10 -10    2.10    3.90
 -13 -10  10    4.00    3.90
  13 -10  -9   15.60    5.90
 -13 -10   9   12.40    4.50
  13 -10  -8    3.80    4.50
 -13 -10   8    4.40    3.40
  13  10  -7    8.60    3.80
 -13 -10   7    3.90    3.70
  13 -10  -7    6.30    4.40
  13  10  -6   45.20    6.80
  13 -10  -6   49.00    8.10
 -13 -10   6   59.89    7.90
  13  10  -5   90.59    7.90
 -13 -10   5   97.29    8.40
  13 -10  -5   78.49    9.80
  13  10  -4    3.20    2.90
 -13 -10   4    1.90    2.90
 -13  10   3    1.40    2.80
  13  10  -3   -2.50    1.90
 -13 -10   3    2.80    2.70
  13  10  -2   10.50    3.60
 -13  10   2    8.40    3.90
 -13 -10   2   11.60    4.40
  13 -10  -2   14.00    3.30
  13  10  -1   25.90    4.90
 -13  10   1   37.10    6.50
  13 -10  -1   33.50    4.80
 -13 -10   1   36.30    6.40
 -13  10   0    1.60    2.50
  13  10   0   -1.40    2.10
  13 -10   0    1.50    2.50
 -13 -10   0   -2.10    2.30
 -13  10  -1    3.30    2.60
  13  10   1   10.00    3.60
  13 -10   1    5.20    3.20
 -13 -10  -1    4.00    3.70
 -13  10  -2   66.49    7.70
  13  10   2   54.89    6.90
  13 -10   2   79.39    8.40
 -13 -10  -2   64.29    8.80
  13  10   3   -0.50    2.70
 -13  10  -3    2.00    2.40
 -13 -10  -3    0.50    3.20
  13 -10   3    8.40    4.00
  13  10   4    4.50    3.40
 -13 -10  -4   -1.00    3.20
  13 -10   4    3.20    4.20
  13  10   5   -1.20    3.10
 -13 -10  -5    2.80    3.50
  13 -10   5   -0.70    3.40
  13  10   6   -0.60    3.10
  13 -10   6    0.70    3.90
 -13 -10  -6   -1.70    3.00
  13 -11  -9   21.40    6.50
 -13 -11   9   23.30    5.70
  13 -11  -8   20.60    6.20
  13  11  -7   46.70    6.80
  13 -11  -7   45.80    8.20
 -13 -11   7   46.30    6.90
  13  11  -6   37.30    6.50
 -13 -11   6   38.90    6.50
  13 -11  -6   24.20    6.40
  13  11  -5   14.60    4.20
  13 -11  -5   23.60    6.20
 -13 -11   5   29.70    5.70
  13  11  -4   -0.40    2.60
  13 -11  -4    1.80    3.30
 -13 -11   4   -2.00    2.70
  13  11  -3   28.10    5.20
  13 -11  -3   43.00    7.20
 -13 -11   3   24.40    5.60
  13  11  -2   -0.30    2.20
 -13  11   2    3.70    3.40
 -13 -11   2   -1.00    2.70
 -13  11   1   -1.50    2.40
  13  11  -1   -0.90    2.20
 -13 -11   1    2.10    3.00
  13 -11  -1   -0.60    2.30
  13  11   0    8.90    3.40
 -13  11   0    4.70    3.20
  13 -11   0    5.20    3.20
 -13 -11   0   10.60    4.30
  13  11   1   28.30    5.10
 -13  11  -1   33.80    6.00
 -13 -11  -1   47.60    7.70
  13 -11   1   32.10    5.50
  13  11   2    1.70    2.80
 -13  11  -2   -0.90    2.50
 -13 -11  -2    0.10    3.10
  13 -11   2    6.60    3.60
  13  11   3   10.70    3.80
 -13 -11  -3    8.10    4.30
  13 -11   3   18.60    5.20
  13  11   4    1.10    3.00
 -13 -11  -4   -1.70    3.00
  13 -11   4   -0.20    3.30
  13  11   5    3.60    3.60
  13 -11   5    4.50    4.40
 -13 -11  -5   13.30    5.00
 -13 -12   9    2.40    3.70
  13 -12  -9    2.10    4.80
  13  12  -8    6.10    3.60
  13 -12  -8    8.30    4.80
  13  12  -7    5.70    3.70
  13 -12  -7    8.50    5.10
 -13 -12   7    4.60    3.50
  13  12  -6   20.40    5.00
  13 -12  -6   23.20    6.60
 -13 -12   6   23.60    5.50
  13  12  -5    0.90    2.80
 -13 -12   5    5.40    3.40
  13 -12  -5    8.60    4.80
  13  12  -4   -0.60    2.30
 -13 -12   4   -0.80    2.40
  13 -12  -4    0.70    3.30
  13  12  -3    8.80    4.00
 -13 -12   3   10.50    4.20
  13 -12  -3    3.80    3.80
  13  12  -2    7.70    3.40
  13 -12  -2   10.60    4.50
 -13 -12   2    6.00    3.50
  13  12  -1    3.60    3.30
 -13 -12   1    7.60    3.90
  13 -12  -1    5.20    3.50
  13  12   0    6.00    3.40
 -13 -12   0    6.60    3.80
  13 -12   0    7.20    3.10
  13 -12   0   10.90    4.00
  13  12   1    5.70    3.10
 -13 -12  -1    3.10    3.20
  13 -12   1    0.80    2.80
  13 -12   1   -1.70    2.60
  13  12   2    3.00    2.90
  13 -12   2   -0.30    2.90
 -13 -12  -2    4.30    4.00
  13 -12   2    6.40    3.60
  13  12   3    6.70    3.40
  13 -12   3    9.40    4.30
 -13 -12  -3    9.00    4.50
  13  12   4    8.60    3.90
  13 -12   4    0.30    3.60
 -13 -12  -4    2.20    3.70
  13  12   5    4.20    3.30
 -13 -12  -5    1.40    3.20
  13 -12   5   -1.80    4.20
  13  13  -8   16.50    5.30
  13 -13  -8   11.80    5.70
  13  13  -7    1.40    3.60
  13 -13  -7   15.00    5.80
 -13 -13   7   10.20    4.10
  13  13  -6    2.20    3.20
  13 -13  -6    4.40    4.60
 -13 -13   6    3.20    3.30
  13  13  -5    1.50    2.80
  13 -13  -5    5.20    4.10
 -13 -13   5    3.10    3.00
  13  13  -4    8.10    3.50
  13 -13  -4   12.00    4.90
 -13 -13   4    1.40    3.00
  13  13  -3    0.40    2.50
 -13 -13   3   -2.40    2.50
  13 -13  -3    1.20    3.40
  13  13  -2    3.20    3.10
 -13 -13   2    1.00    2.90
  13 -13  -2   -2.10    2.70
  13  13  -1   20.60    5.00
  13 -13  -1   20.50    5.30
 -13 -13   1   24.90    6.10
  13  13   0   18.60    4.50
  13 -13   0   23.20    5.50
 -13 -13   0   23.50    5.90
  13  13   1   25.70    5.30
  13 -13   1   18.10    4.70
  13 -13   1   26.20    5.60
 -13 -13  -1   16.10    5.50
  13  13   2    1.30    2.60
  13 -13   2    4.70    3.50
 -13 -13  -2    1.90    3.40
  13 -13   2    3.50    3.60
  13  13   3   30.10    5.70
 -13 -13  -3   35.20    7.40
  13 -13   3   29.00    6.10
  13  13   4    3.80    3.20
  13 -13   4   -3.40    2.60
 -13 -13  -4   -2.60    3.30
  13  14  -8   -0.60    2.90
  13 -14  -8    2.50    4.30
  13  14  -7    7.00    4.10
  13 -14  -7   11.60    5.60
 -13 -14   7    2.30    4.40
  13  14  -6    2.70    3.40
 -13 -14   6   -0.70    2.80
  13 -14  -6   -1.70    3.60
  13  14  -5   12.40    4.30
 -13 -14   5    9.90    4.40
  13 -14  -5   11.90    5.70
  13  14  -4    1.60    3.10
 -13 -14   4    0.20    2.60
  13 -14  -4    2.50    4.00
  13  14  -3    7.00    3.60
 -13 -14   3    5.20    3.50
  13 -14  -3    4.80    4.20
  13  14  -2   20.50    4.70
 -13 -14   2   24.60    6.40
  13 -14  -2   21.10    5.50
  13  14  -1   -1.60    2.30
 -13 -14   1   -2.70    2.80
  13 -14  -1    1.30    3.30
  13  14   0    6.40    3.60
  13 -14   0    3.60    3.40
 -13 -14   0    5.00    4.00
  13  14   1   35.80    6.00
  13 -14   1   35.40    6.40
 -13 -14  -1   33.80    7.10
  13  14   2   -2.10    2.10
 -13 -14  -2   -1.30    3.00
  13 -14   2    1.40    3.30
  13  14   3    5.00    3.60
 -13 -14  -3   -3.40    3.10
  13 -14   3    1.70    3.50
  13  14   4   13.90    4.20
  13 -14   4   16.00    5.40
 -13 -14  -4    6.30    4.40
  13  15  -7   10.60    4.80
  13 -15  -7    6.00    4.70
  13  15  -6    5.20    3.70
 -13 -15   6    3.10    3.70
  13 -15  -6    1.80    4.40
  13  15  -5   14.50    4.50
  13 -15  -5   14.90    5.80
 -13 -15   5   16.40    5.00
  13  15  -4   -1.20    2.70
  13 -15  -4    0.10    3.80
 -13 -15   4   -0.70    2.70
  13  15  -3   13.50    4.70
 -13 -15   3   12.80    4.70
  13 -15  -3    7.80    4.80
  13  15  -2    2.90    3.20
  13 -15  -2    1.20    3.50
 -13 -15   2   -4.30    2.60
  13  15  -1   20.90    5.00
  13 -15  -1   22.40    5.80
 -13 -15   1   22.90    6.20
  13  15   0   25.40    5.50
 -13 -15   0   26.00    6.50
  13 -15   0   27.40    6.00
  13  15   1    5.80    3.30
  13 -15   1    4.70    3.30
 -13 -15  -1    0.30    4.00
  13  15   2   12.10    4.10
 -13 -15  -2    8.50    4.50
  13  15   3    3.20    3.30
  13 -15   3   -4.90    3.00
 -13 -15  -3   -1.10    3.60
  13  16  -6    4.30    3.60
 -13 -16   6    3.80    3.70
  13 -16  -6   -3.00    4.00
  13  16  -5   11.10    4.40
  13 -16  -5   17.10    6.80
 -13 -16   5   21.20    5.40
  13  16  -4   -2.40    3.10
 -13 -16   4   -1.70    2.80
  13 -16  -4    5.90    4.50
  13  16  -3   52.39    7.60
 -13 -16   3   58.09    9.00
  13 -16  -3   52.29    9.00
  13  16  -2    0.10    2.70
 -13 -16   2   -2.30    2.90
  13 -16  -2    0.30    4.00
  13  16  -1    4.10    3.20
  13 -16  -1    2.00    3.70
 -13 -16   1    5.80    4.20
  13  16   0    3.60    3.30
  13 -16   0    7.50    4.60
 -13 -16   0    5.50    4.40
  13  16   1    3.90    2.80
 -13 -16  -1   -2.90    3.10
  13 -16   1    4.30    3.70
  13  16   2    5.40    3.50
 -13 -16  -2    2.50    3.50
  13  17  -5    8.50    4.10
 -13 -17   5    5.50    4.10
  13 -17  -5    7.50    5.20
  13  17  -4    0.70    3.80
  13 -17  -4    0.60    4.60
 -13 -17   4    0.20    3.30
  13  17  -3    5.00    4.00
  13 -17  -3    2.60    4.50
 -13 -17   3   -5.20    2.20
  13  17  -2    6.20    3.60
  13 -17  -2    7.10    4.40
 -13 -17   2    7.00    4.30
  13  17  -1    1.80    3.30
 -13 -17   1    2.70    3.90
  13 -17  -1    4.30    4.10
  13  17   0   23.00    5.40
 -13 -17   0   31.00    7.50
  13 -17   0   18.90    5.80
  13  17   1   -1.00    2.80
 -13 -17  -1   -4.90    2.70
  13  18  -3   -1.70    3.30
  13 -18  -3    3.00    4.80
 -13 -18   3   -5.30    3.00
  13  18  -2   58.09    7.90
 -13 -18   2   58.19    9.40
  13 -18  -2   36.70    7.50
  13  18  -1   19.00    5.10
  13 -18  -1    8.30    4.50
  14   0 -11    0.90    2.80
  14   0 -11    2.20    3.00
  14   0 -10    6.10    3.20
 -14   0  10    8.40    4.50
 -14   0   9   -0.10    2.70
  14   0  -9   -3.30    2.10
  14   0  -8   12.30    3.50
 -14   0   8   16.00    4.80
  14   0  -7   -0.90    1.90
 -14   0   7   -2.10    2.20
  14   0  -6    2.50    2.20
 -14   0   6    0.80    2.50
  14   0  -5   -0.80    2.00
 -14   0   5    3.40    2.50
  14   0  -4   10.90    3.30
 -14   0   4   10.90    3.90
 -14   0   3    0.20    1.70
  14   0  -3    2.60    2.20
  14   0  -2   12.60    3.40
 -14   0   2   13.00    4.10
  14   0  -1   -1.00    1.80
 -14   0   1   -0.90    1.60
  14   0   0   12.70    3.40
 -14   0   0    7.50    3.50
  14   0   1    0.30    2.40
 -14   0  -1   -1.10    2.00
  14   0   2    5.20    3.00
 -14   0  -2    4.80    3.30
  14   0   3   -4.80    2.50
 -14   0  -3   -2.00    1.70
  14   0   4   23.90    5.40
 -14   0  -4   19.40    4.80
 -14   0  -5    4.00    2.80
  14   0   5    1.20    3.10
  14   0   6   57.09    9.00
  14   0   7   -0.70    3.50
  14   1 -11    2.60    3.20
  14  -1 -11    2.20    3.50
 -14   1  10   15.30    5.20
  14   1 -10   46.10    6.60
 -14  -1  10   29.50    6.50
  14  -1 -10   26.40    4.80
 -14   1   9    1.30    3.40
  14   1  -9   -1.20    2.60
  14  -1  -9    1.50    2.30
 -14  -1   9   -1.80    2.60
 -14   1   8    0.10    2.90
  14   1  -8    3.70    2.60
  14  -1  -8    0.80    2.20
 -14  -1   8    5.10    3.60
  14   1  -7   19.60    4.00
 -14   1   7   24.70    5.70
  14  -1  -7   25.30    4.30
 -14  -1   7   26.30    5.40
  14   1  -6   -0.50    2.20
 -14   1   6    3.20    3.00
  14  -1  -6    3.90    2.50
 -14  -1   6    2.70    2.90
  14   1  -5    0.50    2.00
 -14   1   5   -0.20    2.30
  14  -1  -5    1.80    2.40
 -14  -1   5   -0.50    2.20
  14   1  -4   -3.20    1.40
 -14   1   4   -2.70    1.90
 -14  -1   4    1.50    2.60
  14  -1  -4    0.50    2.10
 -14   1   3   -0.30    2.00
  14   1  -3    0.40    1.90
 -14  -1   3   -1.40    2.10
  14  -1  -3    0.60    1.90
  14   1  -2   62.29    6.70
 -14   1   2   54.99    7.40
 -14  -1   2   51.29    7.00
  14  -1  -2   62.89    6.50
 -14   1   1    5.60    2.70
  14   1  -1    0.90    2.40
  14  -1  -1    4.40    2.50
 -14  -1   1    0.20    2.20
 -14   1   0    3.20    2.60
  14   1   0    0.80    2.40
 -14  -1   0    1.10    2.50
  14  -1   0    3.30    2.40
 -14   1  -1   -2.20    2.10
  14   1   1   -1.40    2.10
 -14  -1  -1    2.30    2.80
  14  -1   1   -0.60    2.20
 -14   1  -2    5.50    2.90
  14   1   2    4.00    2.70
 -14  -1  -2   13.00    4.20
  14  -1   2    5.10    3.30
 -14   1  -3   11.10    3.90
  14   1   3   11.30    3.90
  14  -1   3    6.70    3.60
 -14  -1  -3   11.10    3.90
 -14   1  -4   34.40    5.90
  14   1   4   23.30    5.50
 -14  -1  -4   40.00    6.40
  14  -1   4   25.20    5.50
  14   1   5    1.60    3.30
 -14   1  -5    2.50    2.70
 -14  -1  -5    0.40    2.30
  14  -1   5    3.50    3.60
  14   1   6    1.30    3.50
  14  -1   6   -6.80    3.20
  14   1   7    3.40    4.00
  14  -1   7   -1.00    3.60
  14   2 -11    3.30    3.40
  14  -2 -11   11.20    5.00
  14   2 -10    7.90    3.70
  14  -2 -10   20.80    5.50
 -14  -2  10   12.10    4.30
 -14   2   9    1.60    3.20
  14   2  -9    0.20    2.60
  14  -2  -9    0.60    2.10
 -14  -2   9   -0.40    3.20
  14   2  -8    2.00    2.50
 -14   2   8    0.00    2.90
 -14  -2   8   -0.80    2.60
  14  -2  -8    0.40    2.20
  14   2  -7   -0.10    2.10
 -14   2   7    2.00    2.90
  14  -2  -7    0.40    2.00
 -14  -2   7   -2.50    2.10
 -14   2   6   -0.40    2.40
  14   2  -6   -0.30    2.20
  14  -2  -6    3.70    2.20
 -14  -2   6    7.80    3.50
 -14   2   5    1.30    2.70
  14   2  -5    1.70    2.30
 -14  -2   5    0.40    2.20
  14  -2  -5    1.80    2.10
 -14   2   4    5.40    3.20
  14   2  -4    4.50    2.70
  14  -2  -4    4.00    2.50
 -14  -2   4    8.30    3.50
  14   2  -3    6.10    2.80
 -14   2   3   10.40    3.60
 -14  -2   3   10.50    3.70
  14  -2  -3    9.10    2.80
  14   2  -2   -0.20    2.20
 -14   2   2   -1.50    1.90
  14  -2  -2   -0.60    2.10
 -14  -2   2   -1.40    1.80
  14   2  -1   86.79    6.80
 -14   2   1   88.99    7.80
  14  -2  -1   77.89    6.20
 -14  -2   1   73.19    8.40
  14   2   0   26.20    4.70
 -14   2   0   28.80    5.40
 -14  -2   0   29.30    5.70
  14  -2   0   29.70    5.00
 -14   2  -1   -3.30    1.40
  14   2   1   -3.50    1.50
  14  -2   1   -0.10    2.20
 -14  -2  -1    2.90    2.80
  14   2   2   -1.80    1.80
 -14   2  -2   -0.30    2.00
 -14  -2  -2   -0.70    2.00
  14  -2   2    2.90    2.70
  14   2   3   -2.50    2.50
 -14   2  -3    0.30    2.50
  14  -2   3   -2.10    2.20
 -14  -2  -3    0.10    2.20
 -14   2  -4    5.00    2.90
  14   2   4    3.10    3.40
  14  -2   4    5.50    3.50
 -14  -2  -4    1.80    2.70
 -14   2  -5    1.50    2.70
  14   2   5    4.70    3.70
  14  -2   5   -1.80    3.10
 -14  -2  -5    3.10    2.60
  14   2   6   28.90    6.40
  14  -2   6   30.90    6.60
 -14  -2  -6   38.30    6.40
  14   2   7   11.10    5.30
  14  -2   7   19.10    5.90
  14   3 -11    5.40    3.10
  14  -3 -11   10.50    5.20
  14   3 -10    4.00    3.30
 -14  -3  10    2.90    3.80
  14  -3 -10    7.20    4.20
  14   3  -9   20.70    4.60
 -14   3   9   16.50    5.10
 -14  -3   9   21.30    5.30
  14   3  -8   23.30    4.90
 -14   3   8   23.70    5.70
  14  -3  -8   23.10    4.30
 -14  -3   8   25.20    5.50
  14   3  -7    4.40    3.00
 -14   3   7    2.30    3.00
  14  -3  -7   11.00    3.10
 -14  -3   7   10.30    3.90
  14   3  -6   14.20    3.80
 -14   3   6    5.60    3.40
  14  -3  -6    5.90    2.50
 -14  -3   6    8.40    3.70
  14   3  -5   16.70    3.90
 -14   3   5   26.00    5.50
  14  -3  -5   17.20    3.50
 -14  -3   5   18.00    4.60
 -14   3   4   71.99    8.40
  14   3  -4   65.39    7.00
  14  -3  -4   69.59    5.70
 -14  -3   4   67.59    8.10
 -14   3   3   23.90    5.00
  14   3  -3   10.80    3.30
 -14  -3   3   28.90    5.60
  14  -3  -3   21.80    4.00
  14   3  -2    3.20    2.60
 -14   3   2    3.80    3.00
  14  -3  -2    6.00    2.60
 -14  -3   2    5.90    3.30
 -14   3   1   -1.70    2.10
  14   3  -1    2.70    2.40
 -14  -3   1   -0.80    1.90
  14  -3  -1   -0.40    2.30
 -14   3   0    3.80    3.20
  14   3   0    5.50    2.90
 -14  -3   0    8.30    3.50
  14  -3   0    3.10    2.40
  14   3   1    2.80    2.40
 -14   3  -1   -1.30    1.80
  14  -3   1    3.60    2.80
 -14  -3  -1   -3.40    1.80
  14   3   2   12.90    3.90
 -14   3  -2    8.00    3.50
  14  -3   2    8.30    3.70
 -14  -3  -2   13.40    4.00
 -14   3  -3   -0.80    2.00
  14   3   3   -1.80    2.50
  14  -3   3   -0.80    2.40
 -14  -3  -3   -1.80    2.00
 -14   3  -4   -3.20    2.00
  14   3   4   -1.00    2.50
 -14  -3  -4    3.30    2.70
  14  -3   4    2.80    3.50
  14   3   5    0.40    3.40
  14  -3   5   -3.60    2.80
 -14  -3  -5    3.90    2.80
  14   3   6    0.00    3.20
 -14  -3  -6   -3.20    2.40
  14  -3   6    7.40    4.60
  14   4 -11   -1.80    2.80
  14  -4 -11    0.70    3.70
  14   4 -10    3.40    3.20
 -14  -4  10    6.00    3.80
  14  -4 -10    6.30    4.30
  14   4  -9   -0.50    2.40
 -14  -4   9    3.20    3.70
  14   4  -8   19.50    4.30
 -14   4   8   19.70    5.40
 -14  -4   8   33.40    6.20
 -14   4   7   13.90    4.80
  14   4  -7   23.20    4.50
  14  -4  -7   19.60    3.80
 -14  -4   7   21.30    5.00
 -14   4   6   46.60    7.40
  14   4  -6   38.10    5.60
 -14  -4   6   44.70    6.80
  14  -4  -6   39.00    4.80
 -14   4   5    0.20    2.80
  14   4  -5    0.70    2.10
 -14  -4   5    1.50    2.80
  14  -4  -5    0.10    1.90
  14   4  -4   -0.30    2.00
 -14   4   4   -3.10    1.90
  14  -4  -4   -1.00    1.60
 -14  -4   4    2.40    2.70
 -14   4   3    4.00    3.00
  14   4  -3    0.80    2.20
  14  -4  -3    0.00    2.10
 -14  -4   3    0.20    2.40
 -14   4   2   -3.60    2.00
  14   4  -2   -1.90    2.00
 -14  -4   2    0.90    2.20
  14  -4  -2    0.70    1.80
  14   4  -1    2.20    2.40
 -14   4   1    5.00    3.20
 -14  -4   1    2.20    2.60
  14  -4  -1   -2.00    1.80
 -14   4   0   24.30    5.10
  14   4   0   18.60    4.20
  14  -4   0   15.20    3.80
 -14  -4   0   21.40    4.90
 -14   4  -1    6.80    3.30
  14   4   1    3.80    2.90
 -14  -4  -1    4.40    2.70
  14  -4   1    7.50    3.40
  14   4   2   -1.00    2.40
 -14   4  -2    4.90    2.90
 -14  -4  -2    1.30    2.50
  14  -4   2    0.50    2.70
  14   4   3   -0.80    2.50
 -14   4  -3    0.70    2.10
  14  -4   3   -1.50    2.90
 -14  -4  -3    3.20    3.00
  14   4   4    0.30    3.00
 -14   4  -4    3.40    2.70
  14  -4   4    0.40    3.00
 -14  -4  -4    2.30    2.50
  14   4   5    9.90    4.40
  14  -4   5    3.20    4.00
 -14  -4  -5    6.70    3.40
  14   4   6    4.80    4.60
  14  -4   6    1.60    4.50
 -14  -4  -6    2.90    2.80
  14  -5 -11    9.70    4.60
  14   5 -10   12.00    4.40
  14  -5 -10   14.00    5.10
  14   5  -9    1.30    2.90
  14  -5  -9    2.70    3.80
 -14  -5   9    3.70    3.30
  14   5  -8    2.60    2.70
 -14   5   8    1.50    3.20
 -14  -5   8   -0.10    3.10
 -14   5   7   -0.60    2.70
  14   5  -7    0.80    2.40
  14  -5  -7    2.60    3.30
 -14  -5   7   -0.20    3.00
 -14   5   6   44.10    7.00
  14   5  -6   31.70    5.20
 -14  -5   6   37.10    6.30
  14  -5  -6   42.20    5.00
 -14   5   5    1.70    2.90
  14   5  -5    1.90    2.60
 -14  -5   5   -1.70    2.10
  14  -5  -5    1.60    1.90
  14   5  -4   12.10    3.80
 -14   5   4    6.80    3.70
  14  -5  -4   11.60    3.00
 -14  -5   4   13.50    4.20
 -14   5   3   11.90    4.00
  14   5  -3   12.80    3.80
  14  -5  -3   12.70    3.00
 -14  -5   3   11.00    4.00
 -14   5   2   11.30    3.90
  14   5  -2   12.00    3.50
 -14  -5   2   13.50    4.20
  14  -5  -2   15.20    3.40
  14   5  -1   41.00    6.00
 -14   5   1   37.50    6.40
  14  -5  -1   31.50    4.70
 -14  -5   1   43.20    6.70
  14   5   0   23.30    4.80
 -14   5   0   24.90    5.40
 -14  -5   0   22.30    5.20
  14  -5   0   19.30    4.20
  14   5   1  220.58   11.60
 -14   5  -1  194.08   11.40
  14  -5   1  211.38   11.10
 -14  -5  -1  224.08   12.70
  14   5   2   21.60    4.80
 -14   5  -2   24.80    5.00
 -14  -5  -2   17.10    4.80
  14  -5   2   22.50    4.90
 -14   5  -3    4.90    2.70
  14   5   3    4.40    3.40
  14  -5   3    0.20    3.30
 -14  -5  -3    3.20    3.10
  14   5   4    2.30    3.20
 -14   5  -4   -0.10    2.40
 -14  -5  -4    0.10    2.70
  14  -5   4   -3.40    2.40
  14   5   5    5.30    4.00
  14  -5   5    8.00    4.40
 -14  -5  -5    4.50    3.40
  14   5   6   -1.20    3.60
 -14  -5  -6    4.30    3.20
  14  -5   6    0.60    3.80
  14   6 -10   15.40    4.70
  14  -6 -10   12.00    5.10
  14   6  -9    9.40    4.20
  14  -6  -9    4.80    4.00
 -14  -6   9   12.10    4.30
  14   6  -8   27.90    5.40
 -14  -6   8   45.00    6.80
  14   6  -7    1.30    2.60
 -14   6   7   -0.20    2.80
 -14  -6   7   -0.80    2.20
 -14   6   6    4.60    3.30
  14   6  -6    8.30    3.30
 -14  -6   6    3.90    3.40
  14  -6  -6   10.90    3.70
  14   6  -5   11.30    3.70
 -14   6   5    5.00    3.70
  14  -6  -5    8.00    2.60
 -14  -6   5   11.20    4.00
  14   6  -4    5.90    2.90
 -14   6   4   16.70    4.90
 -14  -6   4   12.10    4.10
  14  -6  -4   12.00    2.90
  14   6  -3    1.70    2.40
 -14   6   3   -3.50    1.80
 -14  -6   3   -1.10    2.00
  14  -6  -3    1.70    2.00
  14   6  -2   15.00    3.90
 -14   6   2   17.30    4.50
 -14  -6   2   15.30    4.30
  14  -6  -2   21.80    4.00
  14   6  -1   -0.50    2.20
 -14   6   1    1.40    2.50
 -14  -6   1    2.10    2.20
  14  -6  -1    4.20    2.60
 -14   6   0    9.80    3.70
  14   6   0    7.40    3.30
  14  -6   0    9.80    3.60
 -14  -6   0    9.50    4.00
 -14   6  -1    0.70    2.30
  14   6   1    4.10    2.90
 -14  -6  -1    4.90    3.30
  14  -6   1    4.10    2.90
  14   6   2   59.49    7.20
 -14   6  -2   63.59    7.60
  14  -6   2   75.49    8.30
 -14  -6  -2   52.99    7.60
 -14   6  -3    0.70    2.40
  14   6   3   -2.30    2.20
 -14  -6  -3   -1.20    2.20
  14  -6   3    0.10    3.50
  14   6   4    3.70    3.20
 -14   6  -4    7.60    4.70
 -14  -6  -4    0.80    2.70
  14  -6   4    5.20    4.30
  14   6   5    2.50    3.50
 -14  -6  -5   11.30    4.50
  14  -6   5   -1.20    3.90
  14   6   6    1.90    3.90
  14  -6   6   -3.50    3.40
 -14  -6  -6    1.80    3.10
  14  -7 -10   44.00    8.30
  14   7  -9    9.60    4.00
 -14  -7   9    8.50    4.10
  14  -7  -9    8.70    4.70
  14   7  -8    5.30    3.60
  14  -7  -8    4.40    4.00
 -14  -7   8   -2.20    2.80
 -14   7   7    4.20    3.80
  14   7  -7   -2.60    2.10
 -14  -7   7    1.60    3.30
 -14   7   6   11.50    4.50
  14   7  -6    8.50    3.50
 -14  -7   6    6.80    3.60
 -14   7   5    1.60    3.00
  14   7  -5    2.70    2.80
  14  -7  -5    1.60    2.20
 -14  -7   5    5.70    3.30
  14   7  -4   29.70    5.20
 -14   7   4   28.90    6.20
 -14  -7   4   25.70    5.50
  14  -7  -4   30.10    4.20
 -14   7   3    2.90    3.00
  14   7  -3    9.90    3.50
  14  -7  -3   12.20    3.00
 -14  -7   3   17.90    4.70
 -14   7   2   12.40    4.40
  14   7  -2   12.00    3.70
 -14  -7   2   11.30    4.00
  14  -7  -2   14.50    3.50
  14   7  -1   10.70    3.70
 -14   7   1   10.70    4.00
 -14  -7   1   11.00    4.10
  14  -7  -1   13.80    3.70
 -14   7   0    9.80    3.70
  14   7   0   16.80    4.30
  14  -7   0   16.60    4.10
 -14  -7   0   15.70    4.70
  14   7   1   41.70    6.20
 -14   7  -1   43.00    6.40
  14  -7   1   32.10    5.30
 -14  -7  -1   50.59    7.50
 -14   7  -2   24.80    5.00
  14   7   2   23.40    4.90
  14  -7   2   19.80    4.80
 -14  -7  -2   21.20    5.10
  14   7   3    7.30    3.50
 -14   7  -3    8.60    3.70
  14  -7   3   12.00    4.60
 -14  -7  -3   10.50    4.40
  14   7   4    3.10    3.00
  14  -7   4    7.20    4.20
 -14  -7  -4    2.60    3.40
  14   7   5   12.90    4.70
 -14  -7  -5   13.70    4.80
  14  -7   5   12.90    5.00
  14   7   6    0.70    3.80
  14  -7   6   -4.40    4.00
 -14  -7  -6    2.00    3.30
  14  -8 -10   20.50    6.30
  14   8  -9    8.70    4.40
 -14  -8   9   -4.40    3.10
  14  -8  -9    2.40    4.20
  14   8  -8    7.60    3.70
 -14  -8   8    3.80    3.30
  14  -8  -8    7.80    4.70
  14   8  -7    5.70    3.50
 -14  -8   7    7.10    3.30
  14  -8  -7    3.30    4.10
 -14   8   6    4.50    3.70
  14   8  -6    6.20    3.60
 -14  -8   6    5.40    3.40
 -14   8   5    3.60    3.40
  14   8  -5    2.00    2.70
 -14  -8   5   -1.30    2.30
 -14   8   4   18.10    5.10
  14   8  -4    7.90    3.60
  14  -8  -4   13.90    3.30
 -14  -8   4   11.60    4.00
  14   8  -3   18.70    4.30
 -14   8   3   14.90    4.70
  14  -8  -3   24.30    3.80
 -14  -8   3   22.30    5.40
  14   8  -2   -0.40    2.20
 -14   8   2    1.60    2.80
 -14  -8   2    0.40    2.40
  14  -8  -2   -0.70    2.00
 -14   8   1   -1.80    2.20
  14   8  -1    0.60    2.40
 -14  -8   1    1.60    2.80
  14  -8  -1    1.80    2.40
  14   8   0    8.00    3.50
 -14   8   0   10.40    3.80
 -14  -8   0    7.30    3.70
  14  -8   0    9.20    3.40
 -14   8  -1    5.60    3.40
  14   8   1    4.30    3.00
  14  -8   1    6.00    3.00
 -14  -8  -1    0.60    2.90
 -14   8  -2   20.10    4.80
  14   8   2   23.10    4.90
  14  -8   2   21.50    5.30
 -14  -8  -2   20.80    5.20
 -14   8  -3    0.40    2.30
  14   8   3    0.70    2.70
 -14  -8  -3    2.80    3.10
  14  -8   3   -1.00    3.00
  14   8   4   12.10    4.20
 -14  -8  -4   20.10    5.40
  14  -8   4   21.00    5.90
  14   8   5   -0.40    3.10
  14  -8   5    4.20    4.20
 -14  -8  -5    9.30    4.30
  14  -9 -10   21.20    6.70
  14   9  -9   26.80    6.20
  14  -9  -9   40.20    8.50
  14   9  -8   13.30    4.20
  14  -9  -8   18.40    6.00
 -14  -9   8   24.50    5.20
  14   9  -7    7.60    3.70
 -14  -9   7   11.50    4.20
  14  -9  -7   13.80    5.30
  14   9  -6   19.00    4.60
  14  -9  -6   15.50    5.10
 -14  -9   6   11.80    4.30
 -14   9   5   -2.20    2.50
  14   9  -5    1.20    2.60
 -14  -9   5    1.50    2.70
 -14   9   4   30.10    6.00
  14   9  -4   27.80    5.40
 -14  -9   4   31.40    5.90
 -14   9   3    0.90    3.10
  14   9  -3    2.90    2.70
 -14  -9   3    1.20    2.80
  14  -9  -3    0.60    1.90
 -14   9   2   -0.30    2.70
  14   9  -2    1.30    2.80
 -14  -9   2    0.40    2.50
  14  -9  -2    0.70    2.20
 -14   9   1   -0.60    2.10
  14   9  -1   -0.20    2.30
 -14  -9   1    2.90    3.10
  14  -9  -1    1.70    2.50
  14   9   0   -0.40    2.40
 -14   9   0   -0.60    2.40
 -14  -9   0   -1.40    2.40
  14  -9   0   -0.50    2.50
 -14   9  -1    4.60    3.30
  14   9   1    6.10    3.20
 -14  -9  -1    0.10    2.80
  14  -9   1    3.00    2.80
  14   9   2   -0.90    2.10
 -14   9  -2    1.90    2.90
 -14  -9  -2    0.40    3.30
  14  -9   2    1.60    3.20
 -14   9  -3    0.30    2.20
  14   9   3    5.00    3.20
  14  -9   3   -1.70    3.20
 -14  -9  -3    0.60    3.00
  14   9   4    0.80    2.90
 -14  -9  -4   -2.50    3.10
  14  -9   4    3.20    4.00
  14   9   5   -1.90    3.00
 -14  -9  -5   -2.40    2.70
  14  -9   5    1.10    4.30
  14  10  -9    3.50    3.40
  14 -10  -9   -1.40    3.70
  14  10  -8    0.80    2.90
 -14 -10   8    1.20    3.10
  14 -10  -8   10.10    5.00
  14  10  -7    5.60    3.50
  14 -10  -7    4.40    4.40
 -14 -10   7    7.60    3.90
  14  10  -6    2.40    3.00
  14 -10  -6    5.30    4.10
 -14 -10   6   -0.40    2.40
  14  10  -5   20.90    5.10
  14 -10  -5   24.70    5.90
 -14 -10   5   23.60    5.30
  14  10  -4    9.50    3.90
 -14  10   4    7.20    4.10
 -14 -10   4   10.30    4.10
 -14  10   3    5.20    3.70
  14  10  -3    2.10    3.10
 -14 -10   3    0.60    2.60
  14  10  -2    3.00    2.80
 -14  10   2    0.00    2.60
 -14 -10   2    1.80    2.80
  14 -10  -2    2.50    2.40
  14  10  -1    2.30    2.90
 -14  10   1   -1.20    2.30
 -14 -10   1    2.20    3.20
  14 -10  -1    1.00    2.30
 -14  10   0    8.50    4.10
  14  10   0    4.70    3.10
  14 -10   0    7.50    3.40
 -14 -10   0    1.20    2.90
  14  10   1   22.90    4.80
 -14  10  -1   20.30    4.90
 -14 -10  -1   22.80    5.80
  14 -10   1   25.00    5.20
  14  10   2   10.10    3.80
 -14  10  -2   10.70    4.00
  14 -10   2   12.50    4.10
 -14 -10  -2    5.40    3.90
  14  10   3   -1.70    3.00
  14 -10   3    1.70    3.20
 -14 -10  -3   -0.90    2.90
  14  10   4   17.50    4.90
 -14 -10  -4    2.70    3.30
  14 -10   4   17.60    5.40
  14  10   5    0.20    3.80
  14 -10   5    2.40    4.30
 -14 -10  -5    2.60    3.40
  14  11  -9   -0.60    3.50
  14 -11  -9    5.00    4.80
  14  11  -8    2.50    3.30
 -14 -11   8   -0.90    3.10
  14 -11  -8    1.20    4.20
  14  11  -7    0.20    2.80
  14 -11  -7   -2.60    3.40
 -14 -11   7    0.40    3.10
  14  11  -6   26.90    5.40
  14 -11  -6   37.70    7.70
 -14 -11   6   42.20    6.90
  14  11  -5    1.60    2.90
  14 -11  -5   -1.50    3.40
 -14 -11   5    1.00    2.70
  14  11  -4    1.20    2.60
  14 -11  -4    5.60    4.20
 -14 -11   4    2.00    3.10
  14  11  -3   16.50    4.60
 -14 -11   3    9.10    4.10
  14  11  -2   -1.10    2.80
 -14  11   2    1.70    2.90
 -14 -11   2    1.60    3.00
  14  11  -1   -2.60    2.10
 -14  11   1    4.50    3.50
  14 -11  -1   -3.40    2.30
 -14 -11   1    1.40    2.80
 -14  11   0   23.50    5.40
  14  11   0   26.20    5.40
  14 -11   0   17.00    4.10
 -14 -11   0   14.40    5.00
  14  11   1    8.50    3.60
 -14  11  -1    1.40    2.40
 -14 -11  -1    4.20    3.80
  14 -11   1    4.90    3.30
  14  11   2   27.90    5.60
 -14  11  -2   20.20    5.10
 -14 -11  -2   16.20    5.20
  14 -11   2   11.40    4.50
  14  11   3   -2.10    2.20
 -14 -11  -3   -1.30    3.10
  14 -11   3    3.70    4.00
  14  11   4    4.70    3.00
  14 -11   4    3.80    4.20
 -14 -11  -4    1.80    3.80
  14  12  -8    2.60    3.50
  14 -12  -8    2.20    4.60
  14  12  -7   14.20    4.40
  14 -12  -7   19.00    6.40
 -14 -12   7   22.10    5.30
  14  12  -6    1.60    3.10
 -14 -12   6    0.60    3.10
  14 -12  -6    6.60    4.60
  14  12  -5    1.00    2.90
 -14 -12   5    7.00    3.80
  14 -12  -5   10.70    4.70
  14  12  -4    6.80    3.40
  14 -12  -4    1.60    3.90
 -14 -12   4   -0.30    3.00
  14  12  -3    9.40    4.00
  14 -12  -3   -0.40    3.20
 -14 -12   3    1.10    2.80
  14  12  -2   21.70    5.10
 -14 -12   2   10.30    4.30
  14 -12  -2   37.70    6.90
  14  12  -1   -0.90    2.50
  14 -12  -1    3.10    3.20
 -14 -12   1    0.10    2.80
  14  12   0    4.30    3.30
 -14 -12   0   -1.60    3.10
  14 -12   0    4.10    3.00
  14 -12   0    3.40    3.30
  14  12   1   11.40    4.00
  14 -12   1    2.20    3.40
 -14 -12  -1    6.00    4.20
  14  12   2   17.80    4.80
  14 -12   2   25.10    5.60
  14 -12   2   12.10    4.60
 -14 -12  -2   18.30    5.60
  14  12   3    4.00    3.30
  14 -12   3    3.90    3.80
 -14 -12  -3    4.80    4.20
  14  12   4    3.20    3.50
  14 -12   4    8.80    4.60
 -14 -12  -4   -0.90    3.40
  14  13  -8   -2.30    3.20
  14 -13  -8    5.40    4.50
  14  13  -7   13.30    5.10
 -14 -13   7    9.60    4.60
  14 -13  -7   16.50    5.80
  14  13  -6   17.90    5.00
  14 -13  -6    3.20    4.70
 -14 -13   6   14.90    4.70
  14  13  -5   13.50    4.90
  14 -13  -5    9.10    5.10
 -14 -13   5   23.20    5.50
  14  13  -4   -2.80    2.40
  14 -13  -4    3.20    3.80
 -14 -13   4   -3.50    2.40
  14  13  -3    9.80    4.10
 -14 -13   3   12.50    4.50
  14 -13  -3    2.20    3.80
  14  13  -2    8.80    3.90
 -14 -13   2    5.50    4.20
  14 -13  -2    7.80    5.00
  14  13  -1    7.70    3.70
  14 -13  -1    8.10    4.20
 -14 -13   1    8.70    4.30
  14  13   0   10.30    4.10
  14 -13   0    7.70    3.90
 -14 -13   0   12.50    5.20
  14  13   1   46.30    6.70
  14 -13   1   43.90    7.20
 -14 -13  -1   54.39    8.70
  14 -13   1   54.29    7.40
  14  13   2   -0.40    2.50
  14 -13   2   -1.40    2.90
 -14 -13  -2   -4.70    2.70
  14  13   3   -3.20    2.80
  14 -13   3   -2.10    3.30
 -14 -13  -3    2.90    3.90
  14  14  -7    0.80    3.40
  14 -14  -7   -0.70    4.80
 -14 -14   7   -0.80    3.40
  14  14  -6    1.80    3.60
 -14 -14   6   -1.00    3.20
  14 -14  -6    4.10    4.40
  14  14  -5    0.30    3.10
 -14 -14   5    0.50    2.80
  14 -14  -5    6.80    4.80
  14  14  -4   -5.00    2.70
 -14 -14   4    1.50    3.30
  14 -14  -4   -3.30    3.60
  14  14  -3    4.40    3.70
  14 -14  -3   10.80    5.30
 -14 -14   3    8.90    4.60
  14  14  -2   10.20    4.30
 -14 -14   2   10.20    4.60
  14 -14  -2   18.00    5.60
  14  14  -1    5.60    3.50
  14 -14  -1    1.20    3.10
 -14 -14   1    4.30    4.00
  14  14   0   35.80    6.20
 -14 -14   0   44.60    8.40
  14 -14   0   46.10    7.70
  14  14   1    6.10    3.30
  14 -14   1    3.80    3.10
 -14 -14  -1   -1.10    3.40
  14  14   2    2.50    3.10
 -14 -14  -2    2.10    3.90
  14  14   3    1.50    3.50
  14 -14   3   -1.30    3.40
 -14 -14  -3    2.20    4.00
  14  15  -6   -2.90    2.90
  14 -15  -6   10.20    5.40
 -14 -15   6    1.30    3.70
  14  15  -5   18.50    5.30
 -14 -15   5   18.70    5.60
  14 -15  -5   23.20    7.00
  14  15  -4    1.50    3.10
  14 -15  -4    1.20    4.00
 -14 -15   4    2.30    3.50
  14  15  -3   -1.70    2.50
  14 -15  -3   -3.60    3.30
 -14 -15   3    0.60    3.80
  14  15  -2    1.70    3.70
  14 -15  -2    6.10    3.90
 -14 -15   2    0.30    3.20
  14  15  -1    2.60    3.20
 -14 -15   1   -2.30    3.40
  14 -15  -1    8.70    4.40
  14  15   0   16.80    4.90
  14 -15   0    9.30    4.20
 -14 -15   0   12.20    5.40
  14  15   1   51.39    7.30
 -14 -15  -1   43.40    8.40
  14 -15   1   42.10    7.30
  14  15   2    4.50    3.50
 -14 -15  -2    5.50    4.40
  14  16  -5   -2.10    3.00
  14 -16  -5    1.70    4.40
 -14 -16   5    4.60    3.70
  14  16  -4    3.90    3.70
  14 -16  -4   -0.90    4.50
 -14 -16   4    5.80    4.30
  14  16  -3   14.70    5.10
  14 -16  -3   19.70    6.20
 -14 -16   3   13.90    5.20
  14  16  -2    5.20    3.40
 -14 -16   2   -0.50    3.70
  14 -16  -2    3.80    4.00
  14  16  -1   19.80    5.10
 -14 -16   1   19.20    6.30
  14 -16  -1   33.20    6.90
  14  16   0    2.10    3.30
  14 -16   0    2.10    3.60
 -14 -16   0    1.10    3.90
  14  17  -2    3.80    3.60
  14 -17  -2    9.20    5.00
  15   0 -10   -1.40    2.30
 -15   0  10    1.00    3.40
  15   0  -9   -0.50    2.40
 -15   0   9   -5.00    2.40
 -15   0   8    6.30    4.00
  15   0  -8    2.90    2.40
  15   0  -7    1.10    2.30
 -15   0   7    2.30    2.90
 -15   0   6    2.00    2.90
  15   0  -6    4.90    2.70
  15   0  -5    2.20    2.40
 -15   0   5   -1.30    2.30
 -15   0   4    9.20    3.80
  15   0  -4   24.00    4.50
 -15   0   3   -3.20    1.80
  15   0  -3   -0.70    2.00
  15   0  -2    3.50    2.80
 -15   0   2   -1.30    2.10
 -15   0   1    1.60    2.50
  15   0  -1    2.60    2.50
 -15   0   0  183.28   11.60
  15   0   0  157.98    9.60
 -15   0  -1   -2.90    1.70
  15   0   1   -2.00    2.10
  15   0   2   36.90    6.10
 -15   0  -2   41.50    6.80
  15   0   3   -0.60    3.00
 -15   0  -3   -1.20    2.70
  15   0   4   25.70    6.00
 -15   0  -4   28.10    5.70
  15   0   5    0.30    3.30
 -15   0  -5    0.30    2.80
  15   0   6   -3.20    3.30
 -15   1  10   -0.50    3.80
  15   1 -10    1.50    3.00
  15  -1 -10   -3.40    2.50
 -15  -1  10   -3.90    2.60
 -15   1   9    9.80    4.80
  15   1  -9    5.40    3.40
 -15  -1   9    7.20    4.10
  15  -1  -9   11.30    3.60
  15   1  -8   12.00    3.90
 -15   1   8   20.10    5.90
  15  -1  -8   14.60    4.00
 -15  -1   8   28.20    6.00
  15   1  -7    4.20    2.90
 -15   1   7    5.60    3.70
 -15  -1   7    1.70    2.80
  15  -1  -7    1.60    2.30
 -15   1   6    5.90    3.60
  15   1  -6    5.90    3.00
 -15  -1   6    6.80    3.60
  15  -1  -6    4.30    2.80
 -15   1   5    2.70    2.90
  15   1  -5    0.90    2.50
  15  -1  -5    2.40    2.40
 -15  -1   5    0.50    2.60
 -15   1   4    3.90    3.20
  15   1  -4    9.50    3.30
  15  -1  -4    7.80    2.90
 -15  -1   4   13.90    4.40
  15   1  -3    3.70    2.50
 -15   1   3   -1.80    2.10
  15  -1  -3    0.30    2.10
 -15  -1   3   -0.40    2.50
 -15   1   2    9.00    3.80
  15   1  -2    7.00    3.00
 -15  -1   2   11.40    4.10
  15  -1  -2   10.70    3.40
 -15   1   1    8.30    3.60
  15   1  -1    6.10    3.00
 -15  -1   1    5.60    3.40
  15  -1  -1   10.50    3.50
 -15   1   0   18.50    4.90
  15   1   0   18.90    4.40
  15  -1   0   13.30    3.90
 -15  -1   0   16.80    4.60
  15   1   1   -1.80    2.10
 -15   1  -1    0.90    2.40
 -15  -1  -1    2.00    2.50
  15  -1   1   -5.00    1.40
 -15   1  -2   31.50    5.90
  15   1   2   18.50    4.50
  15  -1   2   31.70    5.80
 -15  -1  -2   17.60    4.70
  15   1   3    2.20    3.20
 -15   1  -3    4.40    3.30
  15  -1   3    8.90    3.90
 -15  -1  -3    3.70    2.90
  15   1   4    7.50    4.30
 -15   1  -4    8.70    3.70
  15  -1   4   -0.70    3.20
 -15  -1  -4    4.50    3.50
 -15   1  -5   21.50    5.20
  15   1   5   16.70    5.80
 -15  -1  -5    8.40    3.80
  15  -1   5   16.40    5.20
  15   1   6    1.70    4.60
  15  -1   6    5.20    4.60
  15   2 -10    3.50    3.20
 -15   2  10    7.90    4.50
 -15  -2  10    6.00    4.20
 -15   2   9   14.60    4.90
  15   2  -9   19.70    4.70
 -15  -2   9   14.60    5.00
  15  -2  -9   13.00    3.90
  15   2  -8    8.50    3.40
 -15   2   8   11.10    4.30
  15  -2  -8   10.10    3.50
 -15  -2   8    6.00    3.80
  15   2  -7   -0.50    2.10
 -15   2   7    0.20    2.80
 -15  -2   7   -1.60    2.60
  15  -2  -7    2.00    2.20
  15   2  -6   -1.40    2.10
 -15   2   6    0.00    2.80
  15  -2  -6    1.90    2.20
 -15  -2   6    0.10    2.50
  15   2  -5   -1.10    1.80
 -15   2   5    5.80    3.30
  15  -2  -5   -1.30    1.90
 -15  -2   5    1.70    2.80
 -15   2   4    6.30    3.20
  15   2  -4    6.40    3.10
  15  -2  -4   12.40    3.40
 -15  -2   4    3.80    3.50
  15   2  -3   35.30    5.60
 -15   2   3   28.70    5.80
  15  -2  -3   19.60    4.00
 -15  -2   3   24.10    5.20
  15   2  -2    1.40    2.30
 -15   2   2    6.80    3.50
 -15  -2   2   -0.10    2.80
  15  -2  -2    0.70    2.20
 -15   2   1    8.50    3.50
  15   2  -1    2.50    2.70
 -15  -2   1    5.70    3.40
  15  -2  -1   -0.50    2.30
 -15   2   0    0.10    2.30
  15   2   0    0.40    2.60
 -15  -2   0   -3.70    1.90
  15  -2   0    0.40    2.50
 -15   2  -1   31.30    5.80
  15   2   1   33.10    5.70
 -15  -2  -1   27.60    5.80
  15  -2   1   28.70    5.50
  15   2   2    0.30    2.50
 -15   2  -2    5.70    3.30
 -15  -2  -2    3.20    3.10
  15  -2   2    1.10    2.70
  15   2   3    4.00    3.60
 -15   2  -3   -0.50    2.50
 -15  -2  -3    6.30    3.50
  15  -2   3    4.20    3.40
  15   2   4    7.50    4.00
 -15   2  -4    6.30    3.30
  15  -2   4    9.20    4.10
 -15  -2  -4    1.50    2.80
  15   2   5    6.00    4.20
 -15  -2  -5    1.30    2.90
  15  -2   5   -5.20    2.90
  15   2   6   43.00    7.70
  15  -2   6   42.60    8.40
  15   3 -10   16.10    4.60
 -15  -3  10   18.60    5.70
  15  -3 -10   38.20    7.60
  15   3  -9    4.90    3.50
 -15   3   9    6.20    4.00
 -15  -3   9    4.30    3.60
 -15   3   8    4.90    3.60
  15   3  -8    2.50    3.00
 -15  -3   8    5.00    3.80
  15  -3  -8    5.40    2.60
  15   3  -7   29.40    5.20
 -15   3   7   48.20    7.60
 -15  -3   7   39.00    6.80
  15  -3  -7   34.30    4.90
 -15   3   6   19.00    5.20
  15   3  -6   13.20    3.90
  15  -3  -6   11.90    3.20
 -15  -3   6    7.00    3.60
  15   3  -5    5.50    2.80
 -15   3   5    4.50    3.60
 -15  -3   5    5.00    3.40
  15  -3  -5    7.60    2.70
 -15   3   4    0.20    2.60
  15   3  -4    3.60    2.50
 -15  -3   4   -1.90    2.20
  15  -3  -4    0.60    2.00
  15   3  -3   -1.20    2.20
 -15   3   3   -2.90    2.00
 -15  -3   3   -3.50    1.80
  15  -3  -3    2.30    2.40
 -15   3   2    0.20    1.90
  15   3  -2   -1.30    2.30
 -15  -3   2   -2.20    2.20
  15  -3  -2   -2.00    1.90
 -15   3   1   84.59    9.30
  15   3  -1  104.69    7.80
 -15  -3   1  101.29    9.00
  15  -3  -1   92.69    7.40
  15   3   0   71.49    7.80
 -15   3   0   88.09    9.40
 -15  -3   0   68.49    8.60
  15  -3   0   76.59    8.00
 -15   3  -1   11.60    4.00
  15   3   1    7.70    3.40
 -15  -3  -1    9.20    4.00
  15  -3   1    8.00    3.30
 -15   3  -2   37.10    6.40
  15   3   2   41.30    6.40
 -15  -3  -2   33.40    6.20
  15  -3   2   21.90    5.10
 -15   3  -3    9.30    3.60
  15   3   3    7.50    3.70
  15  -3   3    9.50    4.50
 -15  -3  -3   10.90    3.90
  15   3   4   14.00    4.70
 -15   3  -4    6.00    3.40
  15  -3   4   21.40    5.40
 -15  -3  -4   14.10    4.70
  15   3   5    1.20    4.20
 -15  -3  -5    3.50    3.10
  15  -3   5    7.10    4.80
  15   3   6    1.60    4.20
  15  -3   6   -0.90    4.00
 -15  -3  -6    1.50    3.20
  15   4 -10    5.30    3.50
 -15  -4  10    3.70    3.90
  15  -4 -10    7.40    4.40
 -15   4   9   21.20    6.00
  15   4  -9   12.40    4.00
 -15  -4   9   16.40    4.90
 -15   4   8   -0.10    3.20
  15   4  -8    1.50    2.60
 -15  -4   8    0.60    3.00
 -15   4   7   13.30    4.80
  15   4  -7    8.60    4.00
 -15  -4   7   22.30    5.30
  15  -4  -7    7.90    2.80
 -15   4   6   -0.20    2.50
  15   4  -6   -1.60    2.10
  15  -4  -6    3.00    2.20
 -15  -4   6    0.30    2.60
 -15   4   5    5.50    3.20
  15   4  -5    5.60    2.90
 -15  -4   5    1.90    3.00
  15  -4  -5    7.20    2.80
  15   4  -4   25.20    4.70
 -15   4   4   29.30    5.90
 -15  -4   4   21.00    5.20
  15  -4  -4   30.70    4.70
 -15   4   3    6.50    3.60
  15   4  -3   -0.60    2.10
 -15  -4   3    6.80    3.70
  15  -4  -3    4.20    2.40
  15   4  -2    0.80    2.20
 -15   4   2    2.10    2.80
 -15  -4   2    0.00    2.70
  15  -4  -2    2.10    2.20
  15   4  -1    1.50    2.60
 -15   4   1    0.60    2.60
 -15  -4   1    5.60    3.50
  15  -4  -1    0.10    2.10
  15   4   0   19.80    4.50
 -15   4   0   19.60    4.80
  15  -4   0   26.00    5.00
 -15  -4   0   24.40    5.60
  15   4   1    2.80    2.70
 -15   4  -1   -1.10    2.00
  15  -4   1   -0.70    2.40
 -15  -4  -1   -0.90    2.50
 -15   4  -2    4.10    3.10
  15   4   2    2.70    3.00
  15  -4   2   -0.20    2.70
 -15  -4  -2    2.60    3.00
  15   4   3    3.80    3.30
 -15   4  -3    1.60    2.80
 -15  -4  -3   -0.20    2.40
  15  -4   3    2.50    3.10
 -15   4  -4    3.60    2.70
  15   4   4   -2.10    3.10
 -15  -4  -4    1.10    3.00
  15  -4   4    4.00    4.10
  15   4   5   51.99    8.10
  15  -4   5   68.89    9.80
 -15  -4  -5   43.00    7.10
  15   5 -10   43.00    7.10
  15  -5 -10   66.09    9.90
 -15  -5  10   47.00    9.00
  15   5  -9   -0.90    2.40
 -15  -5   9   -0.10    3.50
  15  -5  -9    1.40    3.70
  15   5  -8    0.70    2.50
 -15   5   8   -1.10    3.00
 -15  -5   8   -3.10    2.90
 -15   5   7    3.40    3.50
  15   5  -7    3.50    2.90
 -15  -5   7    5.30    3.50
  15   5  -6    0.00    2.70
 -15   5   6   -1.00    2.80
 -15  -5   6    4.10    3.40
  15  -5  -6    3.30    2.30
 -15   5   5   -0.50    3.00
  15   5  -5   -1.50    2.10
 -15  -5   5    3.00    3.20
  15  -5  -5   -3.50    1.50
 -15   5   4    1.90    3.20
  15   5  -4    0.20    2.40
 -15  -5   4   -2.50    2.20
  15  -5  -4    1.70    2.10
  15   5  -3    6.10    3.10
 -15   5   3    1.70    3.00
 -15  -5   3   10.10    3.80
  15  -5  -3    8.40    2.80
 -15   5   2   -0.30    2.60
  15   5  -2    1.90    2.60
  15  -5  -2    3.70    2.40
 -15  -5   2    3.00    3.10
  15   5  -1    3.10    2.90
 -15   5   1    8.50    3.70
 -15  -5   1   -0.10    2.60
  15  -5  -1    1.70    2.60
  15   5   0   23.00    4.90
 -15   5   0   24.00    5.30
  15  -5   0   25.40    4.70
 -15  -5   0   29.90    6.20
  15   5   1   72.69    8.10
 -15   5  -1   80.59    9.00
 -15  -5  -1   75.79    9.20
  15  -5   1   89.99    9.00
  15   5   2    1.40    2.70
 -15   5  -2    9.90    3.90
  15  -5   2   -0.60    2.60
 -15  -5  -2    3.40    3.50
 -15   5  -3   91.29    8.20
  15   5   3   75.49    8.60
 -15  -5  -3   67.89    8.90
  15   5   4   -3.80    3.10
 -15   5  -4    5.40    3.90
 -15  -5  -4    1.00    2.90
  15  -5   4   -0.10    3.30
  15   5   5    2.00    3.60
 -15  -5  -5   -0.90    2.40
  15  -5   5    0.60    3.60
  15   6 -10    0.00    2.70
  15  -6 -10    4.50    4.40
  15   6  -9   14.00    4.50
  15  -6  -9    9.20    4.90
 -15  -6   9   12.90    4.80
  15   6  -8   -1.40    2.40
 -15   6   8    2.00    3.80
 -15  -6   8    5.90    3.30
 -15   6   7    2.70    3.40
  15   6  -7    2.50    3.40
 -15  -6   7    2.60    3.50
 -15   6   6   10.60    4.70
  15   6  -6   16.80    4.80
 -15  -6   6    6.00    3.60
 -15   6   5    0.30    2.00
  15   6  -5    0.80    2.50
  15  -6  -5   -0.50    1.90
 -15  -6   5   -2.20    2.10
 -15   6   4    3.40    3.50
  15   6  -4    9.10    3.50
 -15  -6   4    5.20    3.40
  15  -6  -4   10.10    3.00
  15   6  -3    3.10    2.70
 -15   6   3    0.90    2.70
 -15  -6   3   -0.90    2.30
  15  -6  -3    3.50    2.50
 -15   6   2    0.30    2.30
  15   6  -2    0.30    2.20
 -15  -6   2    0.80    2.60
  15  -6  -2    0.60    2.30
  15   6  -1    1.30    2.70
 -15   6   1    2.00    2.70
 -15  -6   1   -2.40    1.90
  15  -6  -1    2.40    2.60
  15   6   0    0.70    2.50
 -15   6   0    4.80    3.20
 -15  -6   0    1.70    3.00
  15  -6   0   -2.20    2.30
 -15   6  -1    3.10    3.10
  15   6   1    3.40    2.90
 -15  -6  -1    2.80    3.00
  15  -6   1   -1.40    2.40
  15   6   2   21.00    4.80
 -15   6  -2   12.70    4.10
  15  -6   2   21.60    5.00
 -15  -6  -2   18.40    5.20
  15   6   3   10.30    4.30
 -15   6  -3    8.70    3.70
  15  -6   3    5.20    3.70
 -15  -6  -3    8.10    4.10
  15   6   4   49.90    7.60
  15  -6   4   65.29    9.00
 -15  -6  -4   53.89    8.00
  15   6   5   48.20    8.10
  15  -6   5   68.49    9.80
 -15  -6  -5   49.30    8.10
  15   7 -10   -2.10    2.70
  15  -7 -10    0.90    4.60
  15   7  -9   21.80    5.50
  15  -7  -9   26.10    6.90
 -15  -7   9   34.50    6.60
  15   7  -8    4.80    3.60
  15  -7  -8    3.10    3.70
 -15  -7   8    6.60    3.70
  15   7  -7   25.60    5.30
 -15   7   7   44.40    7.80
 -15  -7   7   48.40    7.40
 -15   7   6    4.90    3.80
  15   7  -6    2.70    3.00
 -15  -7   6    4.90    3.50
  15   7  -5    3.60    2.90
 -15   7   5    7.00    3.80
 -15  -7   5    3.30    3.10
 -15   7   4   14.80    5.20
  15   7  -4   17.40    4.40
 -15  -7   4   18.50    5.10
  15  -7  -4   18.20    3.60
  15   7  -3   -0.60    2.30
 -15   7   3    8.40    4.10
  15  -7  -3    6.50    2.90
 -15  -7   3    3.40    3.10
  15   7  -2    2.30    2.50
 -15   7   2    2.70    3.00
  15  -7  -2    1.60    2.50
 -15  -7   2    5.50    3.60
 -15   7   1   -1.80    2.60
  15   7  -1    2.80    2.80
 -15  -7   1   -0.10    2.60
  15  -7  -1    2.40    2.80
 -15   7   0    8.10    4.00
  15   7   0    1.60    2.90
  15  -7   0    6.40    3.20
 -15  -7   0   -1.90    2.40
  15   7   1   -1.20    2.10
 -15   7  -1   -1.70    2.10
 -15  -7  -1    0.00    2.80
  15  -7   1    4.40    3.40
 -15   7  -2   98.49    8.40
  15   7   2   82.39    8.90
  15  -7   2   73.49    8.40
 -15  -7  -2   79.09    9.70
 -15   7  -3   -0.70    2.40
  15   7   3    1.20    3.20
  15  -7   3   -1.40    3.10
 -15  -7  -3    4.00    3.10
  15   7   4   22.50    5.40
 -15  -7  -4   36.70    7.10
  15  -7   4   32.10    6.70
  15   7   5    6.10    4.20
  15  -7   5   -1.40    3.40
 -15  -7  -5    4.00    3.30
  15   8  -9    3.00    3.20
  15  -8  -9    2.70    4.40
 -15  -8   9    1.70    3.50
  15   8  -8   25.60    5.60
 -15  -8   8   35.20    6.70
  15  -8  -8   37.00    7.60
  15   8  -7   15.30    4.40
 -15  -8   7   23.20    5.70
  15  -8  -7   32.50    7.20
 -15   8   6    3.20    3.90
  15   8  -6    3.70    3.00
 -15  -8   6    2.30    3.10
 -15   8   5   -1.10    1.90
  15   8  -5   -0.40    2.90
 -15  -8   5    1.00    3.50
 -15   8   4   28.10    6.40
  15   8  -4   29.10    5.80
 -15  -8   4   32.50    6.30
  15   8  -3    0.80    2.60
 -15   8   3   -0.10    2.90
  15  -8  -3   -0.10    2.00
 -15  -8   3    2.10    2.80
 -15   8   2    3.90    3.50
  15   8  -2    3.20    2.80
 -15  -8   2   -2.30    2.20
  15  -8  -2    0.80    2.40
  15   8  -1    2.60    2.70
 -15   8   1    2.30    2.80
  15  -8  -1    4.20    2.90
 -15  -8   1    2.60    3.10
 -15   8   0   10.90    4.20
  15   8   0    7.50    3.60
 -15  -8   0    8.90    4.20
  15  -8   0    7.50    3.60
  15   8   1    0.50    2.70
 -15   8  -1    5.30    3.40
 -15  -8  -1    5.80    3.70
  15  -8   1    4.80    3.30
  15   8   2    3.00    3.00
 -15   8  -2    3.30    3.10
  15  -8   2   -2.10    3.10
 -15  -8  -2    3.60    3.40
  15   8   3   20.00    5.20
 -15   8  -3   19.50    5.10
  15  -8   3   15.90    4.90
 -15  -8  -3   25.30    6.10
  15   8   4   14.90    4.90
  15  -8   4   14.70    5.60
 -15  -8  -4   16.20    5.10
  15   8   5    0.60    3.60
 -15  -8  -5   -1.70    2.70
  15  -8   5   -6.20    3.40
  15   9  -9    2.30    3.30
  15  -9  -9    8.70    5.00
  15   9  -8    8.90    3.80
  15  -9  -8   -4.10    3.20
 -15  -9   8   -1.40    2.90
  15   9  -7    4.70    3.40
  15  -9  -7   -3.80    3.20
 -15  -9   7    4.50    3.40
  15   9  -6   -0.50    3.20
 -15  -9   6    3.90    3.20
  15   9  -5   -0.90    2.60
 -15   9   5    2.70    3.50
 -15  -9   5    4.70    3.20
 -15   9   4   11.70    4.60
  15   9  -4   10.90    4.00
 -15  -9   4   15.30    4.90
  15   9  -3   -2.40    2.10
 -15   9   3    0.10    3.20
 -15  -9   3   -3.20    2.30
 -15   9   2   13.20    4.60
  15   9  -2   10.50    3.80
  15  -9  -2    9.70    3.10
 -15  -9   2   10.40    4.40
 -15   9   1    9.60    4.10
  15   9  -1    2.10    2.60
  15  -9  -1   11.40    3.70
 -15  -9   1   13.10    4.90
 -15   9   0   -2.30    2.10
  15   9   0   -2.40    2.70
 -15  -9   0   -0.10    2.80
  15  -9   0   -0.10    2.60
  15   9   1    5.10    3.40
 -15   9  -1    7.20    3.80
  15  -9   1   10.50    4.00
 -15  -9  -1    4.70    3.60
  15   9   2   27.20    5.50
 -15   9  -2   19.20    5.10
 -15  -9  -2   25.70    6.30
  15   9   3    0.80    2.80
 -15  -9  -3    1.10    3.20
  15  -9   3    0.30    3.30
  15   9   4   22.00    6.40
  15  -9   4   -2.50    3.70
 -15  -9  -4   -1.80    3.30
  15 -10  -9   15.60    6.30
  15  10  -8   -0.30    3.10
  15 -10  -8   -1.90    3.50
 -15 -10   8    1.50    3.20
  15  10  -7    4.40    3.70
 -15 -10   7   17.30    5.30
  15 -10  -7   15.40    6.00
  15  10  -6   34.20    6.40
  15 -10  -6   43.40    8.40
 -15 -10   6   24.40    5.70
  15  10  -5    1.50    3.30
 -15 -10   5    3.60    3.50
  15 -10  -5    2.70    3.10
  15  10  -4    3.60    3.60
 -15  10   4    2.70    3.40
 -15 -10   4    4.70    3.60
  15  10  -3   16.70    4.60
 -15  10   3   10.50    4.50
 -15 -10   3   13.50    4.60
 -15  10   2    9.00    4.20
  15  10  -2    5.20    3.50
 -15 -10   2    6.30    4.00
  15  10  -1   -2.70    2.40
 -15  10   1   -2.60    2.20
 -15 -10   1   -0.10    2.90
  15 -10  -1    3.10    2.70
  15  10   0    6.90    3.60
 -15  10   0    6.20    3.40
  15 -10   0    8.20    3.80
 -15 -10   0    8.70    4.60
 -15  10  -1    3.40    2.70
  15  10   1    1.20    3.00
 -15 -10  -1   -3.90    2.70
  15 -10   1    0.30    2.90
 -15  10  -2   21.40    5.40
  15  10   2   21.60    5.20
  15 -10   2   18.80    5.00
 -15 -10  -2   25.70    6.40
  15  10   3   -1.60    2.60
  15 -10   3    3.60    3.90
 -15 -10  -3    1.50    3.20
  15  10   4   50.29    7.50
  15 -10   4   34.00    7.30
 -15 -10  -4   31.00    6.70
  15  11  -8    0.20    3.10
  15 -11  -8    2.70    4.40
 -15 -11   8   -3.30    3.00
  15  11  -7    1.30    3.30
 -15 -11   7    2.20    3.60
  15 -11  -7    0.30    4.00
  15  11  -6    0.50    3.00
  15 -11  -6   -3.10    3.50
 -15 -11   6   -4.30    2.20
  15  11  -5    5.60    4.10
 -15 -11   5   10.00    4.20
  15 -11  -5    4.40    4.40
  15  11  -4    1.80    3.10
  15 -11  -4    1.60    3.70
 -15 -11   4    4.10    3.50
  15  11  -3    5.60    3.70
 -15  11   3    3.50    3.60
 -15 -11   3    4.40    3.50
 -15  11   2   -0.60    2.80
  15  11  -2    0.20    2.90
 -15 -11   2    0.70    3.30
  15  11  -1    3.30    3.20
 -15  11   1    3.20    3.30
 -15 -11   1    0.10    3.50
  15  11   0    9.00    4.10
 -15  11   0    1.40    2.90
 -15 -11   0    0.70    3.10
  15 -11   0    0.40    2.70
 -15  11  -1   -0.70    2.50
  15  11   1    1.00    3.10
  15 -11   1    0.20    3.00
 -15 -11  -1   -2.90    2.50
  15  11   2    0.40    2.70
 -15  11  -2   -3.60    2.20
  15 -11   2   -0.30    3.40
 -15 -11  -2    0.90    3.60
  15  11   3    1.10    3.30
  15 -11   3    6.10    4.40
 -15 -11  -3    0.70    3.40
  15  12  -7    0.40    3.60
 -15 -12   7    0.40    3.10
  15 -12  -7    0.90    4.10
  15  12  -6    1.40    3.30
  15 -12  -6   -3.50    3.30
 -15 -12   6    3.70    3.80
  15  12  -5    8.20    3.90
  15 -12  -5    9.80    5.10
 -15 -12   5   13.80    4.80
  15  12  -4   13.60    4.60
  15 -12  -4   11.90    5.50
 -15 -12   4   10.10    4.40
  15  12  -3    6.70    3.60
  15 -12  -3   14.50    5.50
 -15 -12   3    5.30    4.10
  15  12  -2   14.00    4.50
 -15 -12   2   11.10    4.60
  15 -12  -2    9.00    4.40
  15  12  -1   -0.50    2.90
 -15 -12   1   -5.60    2.20
  15  12   0   -0.70    2.60
 -15 -12   0    3.70    3.90
  15  12   1    0.20    2.90
  15 -12   1    0.40    3.20
 -15 -12  -1    8.50    4.50
  15  12   2   16.40    4.80
 -15 -12  -2    8.30    4.60
  15 -12   2   17.10    5.60
  15 -12   2   11.00    4.60
  15  12   3   20.00    5.20
  15 -12   3   15.10    4.80
 -15 -12  -3   19.10    6.10
  15  13  -7    4.20    3.40
 -15 -13   7   -1.10    3.10
  15 -13  -7    0.10    4.40
  15  13  -6    8.50    4.60
  15 -13  -6   17.30    6.20
 -15 -13   6   15.10    5.00
  15  13  -5    9.30    4.50
  15 -13  -5    6.50    5.00
 -15 -13   5    6.40    4.40
  15  13  -4   -1.70    3.10
 -15 -13   4    1.10    3.10
  15 -13  -4    1.00    3.70
  15  13  -3    4.50    3.40
 -15 -13   3   18.50    5.80
  15 -13  -3    4.80    4.60
  15  13  -2    2.90    3.20
 -15 -13   2    0.50    3.30
  15 -13  -2   10.60    4.60
  15  13  -1    2.90    3.20
  15 -13  -1    2.00    3.50
 -15 -13   1   -0.30    3.20
  15  13   0   -0.80    2.80
 -15 -13   0   -0.30    3.30
  15 -13   0    0.00    3.30
  15  13   1    2.40    3.40
  15 -13   1    7.20    4.20
 -15 -13  -1    5.90    4.00
  15  13   2   31.00    6.10
 -15 -13  -2   28.10    7.40
  15 -13   2   27.70    5.70
  15  14  -6    4.20    4.00
  15 -14  -6    6.90    4.70
 -15 -14   6   10.60    4.50
  15  14  -5    1.40    3.50
 -15 -14   5    9.80    4.90
  15 -14  -5    1.80    4.60
  15  14  -4    6.70    4.10
  15 -14  -4   15.00    6.00
 -15 -14   4    7.60    4.30
  15  14  -3   16.50    5.00
 -15 -14   3   16.40    5.70
  15 -14  -3   11.50    5.60
  15  14  -2    2.00    3.10
  15 -14  -2    5.40    4.40
 -15 -14   2    3.80    4.00
  15  14  -1    8.90    3.80
  15 -14  -1   -0.90    3.40
 -15 -14   1    7.00    4.90
  15  14   0   31.80    5.90
 -15 -14   0   33.10    7.40
  15 -14   0   35.30    7.00
  15  14   1   -0.10    3.20
 -15 -14  -1    1.70    3.60
  15 -14   1    0.80    3.60
  15 -15  -5   15.70    6.00
  15  15  -4    7.20    4.60
 -15 -15   4    3.30    3.70
  15 -15  -4    2.10    4.50
  15  15  -3   20.70    5.30
  15 -15  -3   21.60    6.60
 -15 -15   3   31.70    7.20
  15  15  -2   12.60    4.40
 -15 -15   2    4.90    4.00
  15 -15  -2    8.30    4.60
  15  15  -1   11.00    4.30
 -15 -15   1   14.20    5.30
  15 -15  -1   12.90    5.00
  15  15   0    9.20    4.30
  15 -15   0    3.60    3.50
 -15 -15   0    8.70    4.70
 -16   0  10    1.60    3.60
  16   0 -10   -2.80    2.70
  16   0  -9   -3.40    2.50
 -16   0   9    1.50    3.50
 -16   0   8    7.60    4.20
  16   0  -8    7.20    3.60
  16   0  -7    0.40    2.60
 -16   0   7    1.00    2.80
  16   0  -6   33.20    5.20
 -16   0   6   25.70    5.90
  16   0  -5   -3.40    1.50
 -16   0   5    0.70    2.50
  16   0  -4   21.00    4.30
 -16   0   4   23.00    5.30
  16   0  -3    0.50    2.40
 -16   0   3   -0.30    2.30
 -16   0   2   51.39    7.70
  16   0  -2   44.30    6.20
  16   0  -1    2.20    2.40
 -16   0   1    4.00    3.20
  16   0   0    5.70    3.10
 -16   0   0   10.70    4.20
  16   0   1   -0.50    2.40
 -16   0  -1    4.20    3.10
  16   0   2   17.50    4.60
 -16   0  -2   22.10    5.20
 -16   0  -3    3.60    3.10
  16   0   3   -0.40    2.90
 -16   0  -4   29.20    6.20
  16   0   4   26.70    6.40
 -16   0  -5    0.20    2.90
  16   0   5   -1.20    3.20
  16   1 -10   -0.30    2.90
 -16   1  10   -2.90    3.50
 -16  -1  10   -0.90    3.30
  16   1  -9   -2.20    2.70
 -16   1   9    2.30    3.90
  16  -1  -9    2.10    2.90
 -16  -1   9    2.90    4.00
 -16   1   8    3.00    3.60
  16   1  -8    1.70    3.00
  16  -1  -8    8.50    3.20
 -16  -1   8    0.10    2.80
 -16   1   7    1.10    3.50
  16   1  -7    5.40    3.10
 -16  -1   7    3.20    3.40
  16  -1  -7   -0.20    2.40
  16   1  -6    0.40    2.40
 -16   1   6    1.70    3.20
 -16  -1   6    3.20    3.40
  16  -1  -6    9.40    3.60
  16   1  -5   12.50    3.80
 -16   1   5    7.40    3.90
 -16  -1   5    6.60    3.80
  16  -1  -5   14.60    4.00
  16   1  -4    0.30    2.50
 -16   1   4    2.30    3.20
  16  -1  -4    5.20    3.00
 -16  -1   4    2.50    3.20
  16   1  -3    4.50    2.70
 -16   1   3    1.90    3.10
 -16  -1   3    1.20    2.90
  16  -1  -3    6.80    2.90
  16   1  -2   -0.90    1.90
 -16   1   2    8.70    3.80
  16  -1  -2    1.00    2.30
 -16  -1   2   -0.30    2.50
 -16   1   1    1.60    2.70
  16   1  -1    0.00    2.30
 -16  -1   1    5.30    3.40
  16  -1  -1   -0.90    2.00
 -16   1   0   -4.20    1.70
  16   1   0   -3.60    1.70
  16  -1   0    4.50    3.30
 -16  -1   0   -1.40    2.20
 -16   1  -1    1.30    2.80
  16   1   1    3.20    3.00
 -16  -1  -1   -0.30    2.80
  16  -1   1    0.70    2.90
  16   1   2    7.70    3.70
 -16   1  -2    8.10    3.90
  16  -1   2    4.10    3.40
 -16  -1  -2   16.60    4.90
 -16   1  -3    2.10    3.10
  16   1   3   -3.10    2.00
  16  -1   3   -1.20    3.10
 -16  -1  -3   -3.70    2.40
  16   1   4    0.40    4.00
 -16   1  -4   -2.10    2.50
  16  -1   4    0.10    3.70
 -16  -1  -4    2.50    2.80
  16   1   5   12.20    5.30
  16  -1   5    2.40    3.80
 -16  -1  -5    4.40    3.80
  16   2 -10   -1.30    2.20
 -16   2  10    0.90    3.50
 -16  -2  10    1.20    3.70
 -16   2   9   -0.80    3.40
  16   2  -9    0.00    2.90
 -16  -2   9   -2.70    2.60
 -16   2   8   42.60    7.60
  16   2  -8   36.60    6.10
  16  -2  -8   44.00    5.80
 -16  -2   8   33.90    6.70
  16   2  -7    9.70    4.00
 -16   2   7    3.80    3.70
  16  -2  -7    8.90    3.20
 -16  -2   7    9.50    4.50
  16   2  -6    8.60    3.40
 -16   2   6    4.50    3.60
  16  -2  -6    9.00    3.40
 -16  -2   6    3.20    3.40
 -16   2   5    1.80    3.00
  16   2  -5    4.60    2.80
  16  -2  -5    1.20    2.30
 -16  -2   5    1.50    3.10
  16   2  -4   -0.20    2.50
 -16   2   4   -4.00    2.10
  16  -2  -4   -0.70    2.00
 -16  -2   4   -2.80    2.00
  16   2  -3   10.30    3.30
 -16   2   3   24.20    5.50
  16  -2  -3   21.90    4.30
 -16  -2   3   15.20    4.80
  16   2  -2   -0.60    2.20
 -16   2   2    6.60    3.50
 -16  -2   2    3.90    3.30
  16  -2  -2   -0.50    2.10
  16   2  -1    2.90    2.50
 -16   2   1    4.30    3.00
  16  -2  -1    0.70    3.00
 -16  -2   1    0.60    2.60
  16   2   0    4.70    3.00
 -16   2   0    4.40    3.00
  16  -2   0    4.60    2.90
 -16  -2   0    5.90    3.70
  16   2   1   32.30    5.60
 -16   2  -1   24.40    5.40
 -16  -2  -1   33.10    6.50
  16  -2   1   27.70    5.40
  16   2   2   13.50    4.40
 -16   2  -2   14.40    4.60
 -16  -2  -2    6.80    3.60
  16  -2   2   10.30    4.30
  16   2   3    0.00    3.00
 -16   2  -3    1.50    2.90
  16  -2   3   -5.30    2.20
 -16  -2  -3    0.00    2.50
 -16   2  -4    3.30    3.40
  16   2   4    9.20    4.40
 -16  -2  -4    7.00    3.60
  16  -2   4    2.00    4.20
  16   2   5    7.10    4.90
  16  -2   5    3.90    4.10
 -16  -2  -5    1.40    3.10
  16   3 -10   -2.10    2.70
 -16  -3  10    6.40    4.50
 -16   3   9   -2.50    2.90
  16   3  -9   -0.50    2.70
 -16  -3   9    1.60    3.30
 -16   3   8   18.60    5.90
  16   3  -8   21.40    5.00
  16  -3  -8   18.20    5.20
 -16  -3   8   21.70    5.80
 -16   3   7    7.50    4.30
  16   3  -7    6.00    3.50
  16  -3  -7    8.20    3.30
 -16  -3   7   13.10    4.60
  16   3  -6    5.80    3.10
 -16   3   6   -1.20    2.70
  16  -3  -6   10.10    3.20
 -16  -3   6    7.00    4.10
 -16   3   5    5.60    3.80
  16   3  -5    1.50    2.60
 -16  -3   5   -0.90    2.50
  16  -3  -5    3.80    2.60
 -16   3   4    1.30    2.20
  16   3  -4    0.20    2.50
 -16  -3   4    5.20    3.20
  16  -3  -4    0.50    1.90
  16   3  -3    3.40    2.70
 -16   3   3    3.40    3.30
 -16  -3   3    6.00    3.40
  16  -3  -3    4.90    2.80
  16   3  -2    6.40    3.10
 -16   3   2   15.00    4.70
 -16  -3   2   15.00    4.60
  16  -3  -2    9.00    3.20
 -16   3   1    6.30    3.40
  16   3  -1    1.10    2.50
 -16  -3   1    3.30    3.20
  16  -3  -1    6.60    3.50
  16   3   0   22.50    5.00
 -16   3   0   29.00    5.90
  16  -3   0   26.40    5.10
 -16  -3   0   32.20    6.50
 -16   3  -1    0.60    2.60
  16   3   1    0.10    2.60
  16  -3   1    0.00    2.80
 -16  -3  -1    0.00    2.60
  16   3   2   39.30    6.50
 -16   3  -2   29.60    5.80
 -16  -3  -2   45.90    7.60
  16  -3   2   30.10    6.00
  16   3   3    3.90    3.60
 -16   3  -3   -0.50    2.20
 -16  -3  -3    0.50    2.90
  16  -3   3    5.60    4.10
  16   3   4    3.00    4.10
 -16   3  -4    1.70    3.10
  16  -3   4    2.70    4.00
 -16  -3  -4    0.90    3.00
  16   3   5    4.60    4.30
 -16  -3  -5    1.00    3.30
  16  -3   5   -1.20    3.70
  16  -4 -10   27.10    7.00
 -16   4   9   -2.60    3.20
  16   4  -9    1.80    3.30
 -16  -4   9   -5.10    3.00
 -16   4   8    3.20    4.00
  16   4  -8   -0.30    2.90
 -16  -4   8    1.90    3.30
 -16   4   7    4.20    3.70
  16   4  -7    4.10    3.10
  16  -4  -7    4.00    2.70
 -16  -4   7    1.20    3.10
  16   4  -6    3.20    3.00
 -16   4   6    1.70    3.20
 -16  -4   6    5.00    3.50
  16  -4  -6    5.80    2.70
  16   4  -5   -2.10    2.00
 -16   4   5   -2.20    2.00
  16  -4  -5   -1.50    2.00
 -16  -4   5   -1.20    2.70
  16   4  -4    9.90    3.70
 -16   4   4   15.00    4.90
  16  -4  -4   26.30    4.80
 -16  -4   4   22.30    5.50
 -16   4   3    6.90    3.90
  16   4  -3   -0.60    2.60
  16  -4  -3    4.90    2.50
 -16  -4   3    2.20    3.10
 -16   4   2    4.20    3.30
  16   4  -2    5.30    3.10
  16  -4  -2    3.30    2.70
 -16  -4   2    7.20    3.50
  16   4  -1    3.00    3.00
 -16   4   1   -0.20    2.70
 -16  -4   1    7.50    3.80
  16  -4  -1    6.70    3.50
  16   4   0    2.20    2.70
 -16   4   0    4.70    3.20
  16  -4   0    0.00    2.40
 -16  -4   0    4.80    3.30
 -16   4  -1    6.00    3.40
  16   4   1    9.90    4.10
  16  -4   1   10.30    4.30
 -16  -4  -1   11.00    4.10
  16   4   2   11.70    4.60
 -16   4  -2   15.20    5.00
  16  -4   2   10.20    4.10
 -16  -4  -2    8.70    4.10
 -16   4  -3    3.90    3.30
  16   4   3   -3.70    2.20
  16  -4   3    1.30    3.40
 -16  -4  -3    1.80    3.20
 -16   4  -4   -0.60    3.30
  16   4   4   -1.70    3.40
 -16  -4  -4    4.00    3.40
  16  -4   4    9.10    5.00
  16   5  -9   -1.40    3.10
 -16  -5   9    3.10    3.70
  16   5  -8   61.89    8.20
 -16   5   8   60.59    9.30
 -16  -5   8   70.99    9.30
  16   5  -7    0.30    2.70
 -16   5   7   -4.20    2.40
 -16  -5   7    1.00    2.90
 -16   5   6   -0.60    3.10
  16   5  -6    2.20    3.10
  16  -5  -6    5.30    2.60
 -16  -5   6    0.70    2.80
 -16   5   5    5.40    3.90
  16   5  -5    5.80    3.70
  16  -5  -5    7.20    2.80
 -16  -5   5    7.40    4.00
 -16   5   4   11.60    4.30
  16   5  -4    2.60    3.20
 -16  -5   4    6.70    3.90
  16  -5  -4    0.20    2.10
 -16   5   3    4.00    3.00
  16   5  -3    0.80    2.40
 -16  -5   3    5.60    3.80
  16  -5  -3    3.30    2.80
  16   5  -2   20.70    5.00
 -16   5   2   19.70    5.40
  16  -5  -2   11.10    3.30
 -16  -5   2   10.50    4.20
 -16   5   1    7.70    4.00
  16   5  -1    0.50    2.70
  16  -5  -1    2.70    2.50
 -16  -5   1    2.20    3.30
 -16   5   0   -3.60    1.90
  16   5   0    0.80    2.60
  16  -5   0    3.60    3.30
 -16  -5   0    1.90    3.10
  16   5   1   28.60    5.60
 -16   5  -1   33.00    6.20
  16  -5   1   34.00    6.20
 -16  -5  -1   31.10    6.30
  16   5   2    7.30    3.60
 -16   5  -2    6.90    3.60
 -16  -5  -2    8.10    4.00
  16  -5   2    8.20    4.10
 -16   5  -3   50.29    7.50
  16   5   3   55.59    8.10
 -16  -5  -3   67.79    9.20
  16  -5   3   57.49    8.40
  16   5   4    3.10    3.60
  16  -5   4   -1.20    4.10
 -16  -5  -4    6.90    3.90
  16   6  -9    3.50    3.70
  16  -6  -9    0.00    3.90
 -16  -6   9   10.10    4.40
 -16   6   8    9.80    4.90
  16   6  -8   30.60    6.40
 -16  -6   8   30.30    6.40
  16   6  -7    4.80    3.30
 -16   6   7    4.50    4.10
 -16  -6   7    5.70    4.00
  16   6  -6    1.40    2.70
 -16   6   6   -1.80    3.00
 -16  -6   6   -3.10    2.60
 -16   6   5   12.30    4.70
  16   6  -5    6.70    3.60
 -16  -6   5    5.60    3.70
  16  -6  -5    7.80    3.00
  16   6  -4    2.30    2.90
 -16   6   4    0.00    3.30
 -16  -6   4   -3.40    2.80
  16  -6  -4    0.80    2.10
  16   6  -3   12.50    4.00
 -16   6   3    6.40    4.00
  16  -6  -3    9.80    3.30
 -16  -6   3    1.70    2.90
 -16   6   2    1.70    3.00
  16   6  -2    7.70    3.50
  16  -6  -2    5.30    3.00
 -16  -6   2    2.00    3.10
  16   6  -1    4.10    3.00
 -16   6   1    9.30    4.00
 -16  -6   1    7.20    3.80
  16  -6  -1    1.50    2.70
 -16   6   0    8.40    4.00
  16   6   0   15.00    4.50
  16  -6   0   10.00    3.90
 -16  -6   0   11.20    4.50
  16   6   1    0.00    2.70
 -16   6  -1    0.80    3.10
 -16  -6  -1   -0.40    2.90
  16  -6   1   -3.70    2.60
  16   6   2    7.80    3.90
 -16   6  -2   10.50    3.80
 -16  -6  -2    5.10    3.40
  16  -6   2   -0.70    3.30
  16   6   3    3.50    3.30
 -16   6  -3    0.90    3.10
 -16  -6  -3    0.60    3.00
  16  -6   3   -0.10    3.80
  16   6   4   10.10    4.80
  16  -6   4    4.90    4.30
 -16  -6  -4    7.50    3.70
  16   7  -9   22.00    5.70
  16  -7  -9   20.50    6.30
 -16  -7   9   32.70    6.50
  16   7  -8    6.10    3.70
 -16  -7   8    1.60    4.10
  16  -7  -8    3.90    4.10
 -16   7   7   35.20    7.50
  16   7  -7   17.60    4.90
 -16  -7   7   22.50    5.70
  16   7  -6    4.40    3.20
 -16   7   6    0.50    3.30
 -16  -7   6    2.60    3.30
  16   7  -5   -1.40    2.70
 -16   7   5    7.60    4.20
 -16  -7   5    4.20    3.50
 -16   7   4    3.50    3.70
  16   7  -4    7.10    3.40
  16  -7  -4    7.20    2.90
 -16  -7   4   -3.00    2.30
 -16   7   3    2.00    3.20
  16   7  -3    1.30    3.20
  16  -7  -3    2.20    2.50
 -16  -7   3    2.20    3.10
 -16   7   2   32.30    6.70
  16   7  -2   14.30    4.30
  16  -7  -2   27.30    4.80
 -16  -7   2   27.50    6.20
  16   7  -1   20.70    5.00
 -16   7   1   24.50    5.90
  16  -7  -1   20.40    4.60
 -16  -7   1   26.40    5.90
 -16   7   0   44.20    7.40
  16   7   0   45.70    6.90
  16  -7   0   44.80    6.70
 -16  -7   0   43.40    7.60
  16   7   1    7.40    3.90
 -16   7  -1   15.90    4.90
 -16  -7  -1    8.00    4.10
  16  -7   1   10.70    4.00
  16   7   2   25.50    5.50
 -16   7  -2   26.90    5.90
  16  -7   2   32.20    6.20
 -16  -7  -2   20.10    5.50
 -16   7  -3   86.79    9.60
  16   7   3   68.89    8.90
 -16  -7  -3   67.49    9.60
  16  -7   3   77.19    9.60
  16   7   4   79.39   10.00
  16  -7   4   47.10    8.10
 -16  -7  -4   53.59    8.70
  16   8  -8   -1.00    2.90
 -16  -8   8   -0.10    3.20
  16  -8  -8   11.20    5.20
  16   8  -7    2.70    3.40
 -16  -8   7   -1.40    2.70
 -16   8   6    2.90    3.60
  16   8  -6    2.70    3.20
 -16  -8   6    4.30    3.90
  16   8  -5    3.40    3.30
 -16   8   5   -4.20    2.50
 -16  -8   5   -0.20    3.20
  16   8  -4    7.20    3.90
 -16   8   4    1.50    3.40
 -16  -8   4    1.90    3.40
  16   8  -3   -3.90    2.40
 -16   8   3    1.30    3.10
  16  -8  -3    1.50    2.50
 -16  -8   3   -1.30    2.80
 -16   8   2    1.60    3.90
  16   8  -2    3.70    3.10
 -16  -8   2    5.60    3.60
  16  -8  -2   -0.60    2.60
 -16   8   1   16.70    5.00
  16   8  -1   10.70    3.80
 -16  -8   1   11.50    4.60
  16  -8  -1    8.10    3.60
 -16   8   0   42.80    7.20
  16   8   0   40.90    6.50
  16  -8   0   46.40    6.80
 -16  -8   0   44.00    7.80
 -16   8  -1   71.79    9.00
  16   8   1   57.99    7.90
 -16  -8  -1   48.20    8.00
  16  -8   1   63.49    8.00
 -16   8  -2   89.39   10.10
  16   8   2   80.29    9.30
  16  -8   2   77.69    9.00
 -16  -8  -2   85.89   10.60
  16   8   3   17.80    5.50
 -16  -8  -3   16.00    5.30
  16  -8   3   13.70    5.20
  16   9  -8   21.20    5.40
 -16  -9   8   39.10    7.50
  16  -9  -8   35.90    7.90
  16   9  -7   13.60    4.70
 -16  -9   7    7.80    3.90
  16  -9  -7   12.50    5.40
  16   9  -6    5.00    3.80
 -16   9   6    8.70    4.60
 -16  -9   6    4.90    4.00
 -16   9   5   -0.60    3.10
  16   9  -5   -2.40    2.30
 -16  -9   5   -2.10    3.10
  16   9  -4    7.70    3.70
 -16   9   4    6.20    4.00
 -16  -9   4    7.90    4.20
  16   9  -3    8.80    3.80
 -16   9   3   12.30    5.00
 -16  -9   3   19.20    5.60
  16   9  -2   66.89    8.70
 -16   9   2   74.99    9.70
 -16  -9   2   59.29    8.90
  16  -9  -2   58.79    6.50
 -16   9   1    6.80    4.20
  16   9  -1    3.00    3.20
  16  -9  -1    4.60    3.30
 -16  -9   1    9.50    4.50
  16   9   0   -2.10    2.80
 -16   9   0    0.20    2.80
 -16  -9   0   -2.20    2.70
  16  -9   0   -1.10    2.60
 -16   9  -1    1.90    3.40
  16   9   1    2.00    3.20
 -16  -9  -1    2.90    3.90
  16  -9   1    0.40    3.60
  16   9   2   21.20    5.30
 -16   9  -2   21.40    5.50
 -16  -9  -2   16.70    5.50
  16  -9   2   32.30    6.40
  16   9   3    9.80    4.50
 -16  -9  -3    7.00    4.50
  16  -9   3    0.80    4.00
  16  10  -8    2.10    3.90
 -16 -10   8    1.60    3.60
  16 -10  -8    1.00    4.00
  16  10  -7   15.90    5.20
 -16 -10   7   14.20    5.50
  16 -10  -7   18.40    6.30
  16  10  -6   16.50    4.90
  16 -10  -6    2.10    4.20
 -16 -10   6    9.60    4.40
  16  10  -5    3.70    3.90
 -16 -10   5    7.20    4.00
 -16  10   4   18.30    5.80
  16  10  -4   25.30    5.70
 -16 -10   4   13.60    5.20
 -16  10   3    8.70    4.90
  16  10  -3    6.20    3.90
 -16 -10   3    2.40    3.80
  16  10  -2    8.10    3.80
 -16  10   2   13.90    4.80
 -16 -10   2   11.80    4.80
 -16  10   1   34.50    6.80
  16  10  -1   17.70    4.80
 -16 -10   1   16.50    5.30
  16 -10  -1   20.30    4.60
 -16  10   0    9.70    4.10
  16  10   0    6.50    3.60
 -16 -10   0    6.80    4.30
  16 -10   0    6.20    3.80
 -16  10  -1    8.40    3.90
  16  10   1    5.80    3.80
  16 -10   1   -1.20    3.40
 -16 -10  -1   13.20    5.00
  16  10   2   -5.80    2.80
 -16  10  -2    1.30    3.00
 -16 -10  -2    5.00    3.80
  16 -10   2   -0.60    2.80
  16  10   3   -2.40    2.80
 -16 -10  -3    1.40    3.70
  16 -10   3    4.30    4.20
  16  11  -7   10.80    5.00
  16 -11  -7   17.20    6.10
 -16 -11   7    9.30    4.60
  16  11  -6    3.20    3.50
 -16 -11   6   -6.10    2.30
  16 -11  -6    0.60    4.10
  16  11  -5    9.10    4.60
 -16 -11   5    7.50    4.30
  16 -11  -5    7.20    4.90
  16  11  -4   28.90    6.00
  16 -11  -4   38.60    7.60
 -16 -11   4   35.70    7.40
 -16  11   3   15.70    5.30
  16  11  -3   26.10    5.70
 -16 -11   3   19.10    5.80
 -16  11   2    0.10    3.00
  16  11  -2   -3.30    2.40
 -16 -11   2    0.10    3.20
  16  11  -1    9.70    4.30
 -16  11   1   13.80    4.90
 -16 -11   1   14.50    5.10
  16  11   0    9.10    4.30
 -16  11   0   10.30    4.40
 -16 -11   0    6.30    4.30
  16 -11   0    6.10    3.90
  16  11   1   -5.90    2.70
 -16  11  -1   -2.00    2.70
  16 -11   1    5.50    3.90
 -16 -11  -1   -2.50    2.70
  16  11   2    7.00    4.10
 -16 -11  -2    3.30    3.60
  16 -11   2    3.90    3.90
  16  12  -6    3.90    3.50
  16 -12  -6    5.40    5.20
 -16 -12   6   10.50    5.00
  16  12  -5    1.70    3.30
 -16 -12   5    2.80    4.10
  16 -12  -5   13.50    6.20
  16  12  -4   22.10    5.60
 -16 -12   4   28.90    6.60
  16 -12  -4   18.20    6.20
  16  12  -3   10.20    4.20
 -16 -12   3    9.00    4.70
  16 -12  -3   19.80    6.10
  16  12  -2    8.60    4.20
 -16 -12   2    1.90    3.40
  16 -12  -2    6.10    4.30
  16  12  -1   13.20    4.50
 -16 -12   1    9.80    5.10
  16  12   0    2.00    3.40
 -16 -12   0    3.00    4.10
  16  12   1    2.30    3.60
 -16 -12  -1   -3.50    3.10
  16 -12   1   -3.60    3.30
  16  13  -5    6.60    4.50
  16 -13  -5   18.30    6.40
 -16 -13   5   21.40    6.10
  16  13  -4   10.10    4.40
  16 -13  -4   11.50    5.20
 -16 -13   4   15.40    5.50
  16  13  -3    2.90    3.60
 -16 -13   3    4.40    4.00
  16 -13  -3    5.00    4.80
  16  13  -2   41.40    7.10
  16 -13  -2   40.40    8.10
 -16 -13   2   54.59    9.00
  16  13  -1   60.99    8.40
 -16 -13   1   65.79   10.00
  16 -13  -1   49.99    8.30
  16  13   0    1.50    3.20
  16 -13   0   -0.60    3.10
 -16 -13   0   -2.80    3.40
  16  14  -4   27.00    6.20
  16 -14  -4   40.20    8.30
  16  14  -3   13.70    4.70
  16 -14  -3    8.70    5.30
 -16 -14   3   18.90    6.20
  16  14  -2   -0.30    3.10
  16 -14  -2    7.00    4.50
 -16 -14   2    8.90    4.90
  16  14  -1    7.30    4.00
  16 -14  -1    6.70    4.20
 -17   0   9   -3.70    3.20
  17   0  -9    2.90    3.20
  17   0  -8   22.50    5.00
 -17   0   8   28.50    6.80
  17   0  -7    0.60    2.20
 -17   0   7    2.60    3.50
 -17   0   6    1.90    3.20
  17   0  -6    3.60    2.70
 -17   0   5    1.40    2.80
  17   0  -5    0.00    2.40
  17   0  -4    6.30    3.50
 -17   0   4    3.00    3.30
 -17   0   3   -2.50    2.10
  17   0  -3   -1.80    1.80
 -17   0   2    4.80    3.40
  17   0  -2    4.90    3.00
  17   0  -1    3.90    3.10
 -17   0   1   -1.50    2.50
  17   0   0   40.40    6.30
 -17   0   0   41.70    7.30
  17   0   1    3.70    3.20
 -17   0  -1   -0.40    2.60
  17   0   2   21.00    5.60
 -17   0  -2   11.40    4.40
 -17   0  -3    3.80    3.40
  17   0   3    0.20    3.50
 -17   0  -4   18.10    5.20
  17   0   4   30.20    7.20
  17   1  -9   10.60    4.20
 -17   1   9    6.90    4.50
  17  -1  -9    6.00    3.80
 -17  -1   9    8.00    4.40
 -17   1   8    5.00    4.10
  17   1  -8    3.50    2.80
 -17  -1   8    1.30    3.50
  17  -1  -8    2.60    2.90
  17   1  -7   -2.80    2.20
 -17   1   7    0.50    3.40
  17  -1  -7    0.50    2.70
 -17  -1   7   -3.30    2.90
 -17   1   6    5.90    4.50
  17   1  -6    3.70    3.00
  17  -1  -6   11.50    4.00
 -17  -1   6    6.30    3.80
  17   1  -5    9.50    3.80
 -17   1   5   13.80    4.90
 -17  -1   5    8.60    4.30
  17  -1  -5   12.30    3.80
  17   1  -4   19.90    4.30
 -17   1   4   19.10    5.40
  17  -1  -4   12.20    3.70
 -17  -1   4    8.90    4.30
  17   1  -3   -2.40    2.30
 -17   1   3   -1.30    2.30
  17  -1  -3    0.00    2.60
 -17  -1   3    2.40    3.10
  17   1  -2    8.10    3.40
 -17   1   2    3.90    3.30
  17  -1  -2    5.50    3.20
 -17  -1   2    4.00    3.80
 -17   1   1    4.20    3.90
  17   1  -1    6.30    3.60
  17  -1  -1    4.90    3.10
 -17  -1   1    6.00    3.60
 -17   1   0    8.00    4.00
  17   1   0    4.40    3.30
 -17  -1   0    8.50    4.00
  17  -1   0    5.10    3.50
 -17   1  -1    3.70    4.00
  17   1   1    9.60    4.00
  17  -1   1   15.90    4.60
 -17  -1  -1    6.70    3.60
 -17   1  -2   13.40    4.60
  17   1   2    8.40    4.60
 -17  -1  -2    6.90    3.70
  17  -1   2   17.70    5.60
  17   1   3   -2.00    3.20
 -17   1  -3   -2.60    2.50
 -17  -1  -3   -0.30    3.00
  17  -1   3    8.20    4.40
  17   1   4    0.50    3.80
 -17   1  -4    1.70    3.00
 -17  -1  -4   -2.10    2.40
  17  -1   4    1.90    4.50
  17   2  -9   16.70    4.70
 -17   2   9   18.20    6.40
 -17  -2   9   20.10    5.80
 -17   2   8    4.40    4.80
  17   2  -8    3.70    3.20
  17  -2  -8    4.90    3.20
 -17  -2   8    2.30    3.80
  17   2  -7    4.80    3.50
 -17   2   7   16.20    5.20
 -17  -2   7   13.90    5.20
  17  -2  -7   13.70    4.00
 -17   2   6   11.60    4.80
  17   2  -6   11.10    4.00
  17  -2  -6   17.30    4.40
 -17  -2   6   21.00    5.60
 -17   2   5    8.20    4.30
  17   2  -5    9.70    3.70
  17  -2  -5    4.50    2.80
 -17  -2   5   14.40    4.70
 -17   2   4    0.90    3.10
  17   2  -4    4.80    2.90
  17  -2  -4    0.50    2.20
 -17  -2   4    1.50    3.10
  17   2  -3    3.30    2.90
 -17   2   3    3.20    3.40
  17  -2  -3    1.00    2.40
 -17  -2   3    4.20    3.60
  17   2  -2    2.40    2.70
 -17   2   2    0.30    2.70
  17  -2  -2    6.10    3.20
 -17  -2   2   11.80    4.70
  17   2  -1   -1.90    2.60
 -17   2   1   -1.10    2.70
 -17  -2   1    1.80    2.90
  17  -2  -1    1.90    2.90
 -17   2   0   19.30    5.50
  17   2   0    7.00    3.60
  17  -2   0   12.40    4.20
 -17  -2   0    9.30    4.10
  17   2   1    1.70    3.10
 -17   2  -1    1.30    2.80
  17  -2   1    5.90    4.00
 -17  -2  -1    0.90    3.40
  17   2   2    8.30    4.10
 -17   2  -2    8.30    4.20
  17  -2   2    2.50    3.40
 -17  -2  -2   -2.00    2.70
 -17   2  -3   34.90    6.60
  17   2   3   24.70    6.20
  17  -2   3   22.60    5.80
 -17  -2  -3   15.30    4.80
 -17   2  -4    0.80    2.50
  17   2   4   -3.40    3.00
  17  -2   4    0.60    4.10
 -17  -2  -4   -0.40    3.30
  17   3  -9    2.70    3.30
 -17   3   9    2.50    4.10
 -17  -3   9    2.40    4.00
 -17   3   8   38.40    7.70
  17   3  -8   35.70    6.50
 -17  -3   8   32.90    7.00
  17   3  -7   12.40    4.10
 -17   3   7   15.50    5.50
  17  -3  -7   12.20    3.80
 -17  -3   7   10.40    5.20
 -17   3   6    8.80    4.50
  17   3  -6    8.50    3.50
  17  -3  -6   23.10    4.80
 -17  -3   6   12.30    5.20
 -17   3   5    5.20    3.70
  17   3  -5    1.90    2.90
  17  -3  -5    5.80    3.00
 -17  -3   5    8.40    4.40
 -17   3   4    6.00    3.70
  17   3  -4    7.00    3.60
  17  -3  -4    9.00    3.30
 -17  -3   4    7.50    4.20
 -17   3   3   -0.10    3.00
  17   3  -3    0.00    2.80
 -17  -3   3    4.50    3.50
  17  -3  -3    2.50    2.60
 -17   3   2    4.20    3.60
  17   3  -2    5.80    3.10
  17  -3  -2    6.40    3.60
 -17  -3   2    7.50    3.90
  17   3  -1    1.70    3.30
 -17   3   1    4.30    3.90
  17  -3  -1    1.60    3.00
 -17  -3   1    2.60    3.50
 -17   3   0   -0.90    2.50
  17   3   0   -1.10    2.30
 -17  -3   0    3.20    3.40
  17  -3   0    5.00    3.00
  17   3   1    0.50    2.90
 -17   3  -1    4.60    3.30
 -17  -3  -1   -0.20    2.50
  17  -3   1   -2.60    2.40
 -17   3  -2    9.90    4.10
  17   3   2    8.80    4.10
 -17  -3  -2   12.00    4.50
  17  -3   2   12.60    4.60
  17   3   3    0.40    3.30
 -17   3  -3   -0.90    2.80
  17  -3   3    0.10    3.50
 -17  -3  -3    7.70    3.80
  17   4  -9    5.10    3.70
 -17   4   9    1.80    4.00
 -17  -4   9    1.00    3.80
  17   4  -8    6.90    3.70
 -17   4   8    4.10    4.30
 -17  -4   8    8.70    4.60
  17   4  -7   34.50    6.40
 -17   4   7   36.30    7.60
 -17  -4   7   35.20    6.90
 -17   4   6    3.40    3.80
  17   4  -6   -1.20    2.80
  17  -4  -6    3.50    2.70
 -17  -4   6    0.70    3.10
  17   4  -5   23.90    5.10
 -17   4   5   21.50    5.90
 -17  -4   5   14.80    4.90
  17  -4  -5   11.90    3.70
  17   4  -4   -0.60    2.70
 -17   4   4    2.20    3.10
 -17  -4   4   -1.00    2.60
  17  -4  -4    3.20    2.80
 -17   4   3    0.60    3.20
  17   4  -3    0.90    2.50
 -17  -4   3   -1.80    2.60
  17  -4  -3    4.20    2.90
  17   4  -2   57.49    7.60
 -17   4   2   50.29    8.20
  17  -4  -2   71.79    7.90
 -17  -4   2   70.39    9.50
  17   4  -1    9.40    4.10
 -17   4   1   10.80    4.50
 -17  -4   1    9.50    4.10
  17  -4  -1    8.70    3.90
 -17   4   0   12.50    4.70
  17   4   0   19.60    4.80
  17  -4   0   13.60    4.50
 -17  -4   0    9.10    4.40
 -17   4  -1   -3.90    2.20
  17   4   1   -0.90    3.20
  17  -4   1   -2.50    2.60
 -17  -4  -1   -0.70    2.50
  17   4   2    0.70    3.20
 -17   4  -2    0.10    2.70
  17  -4   2    0.70    3.30
 -17  -4  -2    0.50    3.20
 -17   4  -3    6.10    3.60
  17   4   3    5.70    4.20
 -17  -4  -3    7.60    4.50
  17  -4   3    5.90    4.20
 -17   5   8   22.50    6.80
  17   5  -8   12.90    4.30
 -17  -5   8   24.80    6.10
 -17   5   7   14.50    5.60
  17   5  -7   19.30    5.40
 -17  -5   7   21.60    5.70
  17   5  -6    2.90    3.10
 -17   5   6    0.50    3.20
 -17  -5   6    0.10    3.10
  17   5  -5    2.60    3.10
 -17   5   5   -4.90    2.30
  17  -5  -5    1.50    2.50
 -17  -5   5    0.80    3.10
 -17   5   4   30.00    6.80
  17   5  -4   24.30    5.20
  17  -5  -4   31.20    5.10
 -17  -5   4   30.60    6.50
 -17   5   3   24.10    5.80
  17   5  -3   32.00    6.30
 -17  -5   3   28.20    6.30
  17  -5  -3   32.70    5.10
  17   5  -2   21.50    5.00
 -17   5   2   17.40    5.40
 -17  -5   2   23.50    6.10
  17  -5  -2    8.40    3.40
 -17   5   1   19.60    5.50
  17   5  -1   29.00    5.90
  17  -5  -1   34.70    5.80
 -17  -5   1   31.30    6.60
  17   5   0   11.80    4.20
 -17   5   0   20.20    5.70
 -17  -5   0   13.10    4.90
  17  -5   0    5.60    3.60
 -17   5  -1   -1.10    2.90
  17   5   1    0.30    3.10
 -17  -5  -1   -2.50    2.50
  17  -5   1    5.80    3.80
  17   5   2   11.00    4.10
 -17   5  -2   18.60    5.00
  17  -5   2   15.10    5.30
 -17  -5  -2    8.00    4.00
  17   5   3   14.60    5.10
 -17   5  -3   20.70    5.60
  17  -5   3   27.60    6.80
 -17  -5  -3   21.00    5.70
 -17   6   8    5.20    4.20
  17   6  -8    6.30    3.90
 -17  -6   8    7.20    4.10
 -17   6   7   24.60    6.80
  17   6  -7   23.40    5.80
 -17  -6   7   35.60    7.30
 -17   6   6   48.50    8.60
  17   6  -6   32.30    6.30
 -17  -6   6   33.30    7.10
 -17   6   5   -3.80    2.60
  17   6  -5   -1.10    2.20
 -17  -6   5    0.00    3.30
  17   6  -4   13.70    4.30
 -17   6   4   12.40    5.00
  17  -6  -4   10.70    3.60
 -17  -6   4    8.20    4.30
  17   6  -3    9.30    3.90
 -17   6   3    9.30    4.30
 -17  -6   3    6.40    4.20
  17  -6  -3    4.40    2.80
  17   6  -2   23.00    5.50
 -17   6   2   24.10    5.90
 -17  -6   2   18.70    5.30
  17  -6  -2   24.00    5.00
 -17   6   1    8.20    4.10
  17   6  -1    3.10    3.20
 -17  -6   1    8.30    4.30
  17  -6  -1    9.70    4.00
 -17   6   0   20.90    5.40
  17   6   0   12.70    4.50
  17  -6   0   21.60    5.10
  17   6   1    9.50    4.10
 -17   6  -1    8.60    4.30
  17  -6   1   16.30    4.90
 -17  -6  -1   11.90    4.80
  17   6   2   -1.30    2.90
 -17   6  -2   -2.40    2.80
  17  -6   2   -1.10    3.60
 -17  -6  -2   -1.10    2.80
 -17   6  -3   27.40    6.00
  17   6   3   25.70    6.00
  17  -6   3   25.00    6.30
 -17  -6  -3   41.10    7.80
  17   7  -8   -1.30    2.90
 -17  -7   8   -0.80    3.00
  17   7  -7   67.29    8.90
 -17   7   7   71.99   10.70
 -17  -7   7   81.29   10.40
 -17   7   6    5.30    3.90
  17   7  -6    0.00    3.10
 -17  -7   6    2.00    3.50
 -17   7   5   49.99    8.60
  17   7  -5   35.00    6.50
 -17  -7   5   58.89    9.10
  17   7  -4   -0.20    2.90
 -17   7   4    2.60    3.50
 -17  -7   4   -1.30    2.80
  17  -7  -4    1.40    4.40
  17   7  -3   -2.10    2.20
 -17   7   3    8.20    4.20
 -17  -7   3    4.30    3.60
  17  -7  -3    1.20    2.40
  17   7  -2    6.50    3.70
 -17   7   2   10.30    4.80
 -17  -7   2    3.50    3.50
  17  -7  -2    7.40    3.40
 -17   7   1   16.50    5.60
  17   7  -1   20.00    4.90
  17  -7  -1   17.20    4.50
 -17  -7   1   18.00    5.60
 -17   7   0    6.40    4.00
  17   7   0    4.60    3.60
  17  -7   0   11.30    4.30
 -17  -7   0    5.30    3.90
 -17   7  -1   18.30    5.10
  17   7   1    7.60    3.80
 -17  -7  -1   11.90    4.80
  17  -7   1    7.90    4.00
 -17   7  -2    4.70    3.60
  17   7   2    6.00    4.00
  17  -7   2    0.10    3.70
 -17  -7  -2    3.00    3.60
  17   8  -7   14.50    5.30
 -17   8   7   17.20    6.00
 -17  -8   7   12.90    5.50
  17   8  -6    3.20    3.80
 -17   8   6    3.30    3.80
 -17  -8   6    2.30    3.60
  17   8  -5   -2.00    2.90
 -17   8   5   -1.00    3.40
 -17  -8   5    3.00    4.00
  17   8  -4    6.40    3.80
 -17   8   4    7.80    4.70
 -17  -8   4    7.90    4.20
 -17   8   3    3.20    3.80
  17   8  -3    0.20    2.60
 -17  -8   3    3.60    3.40
  17  -8  -3   -2.80    3.80
 -17   8   2    4.90    4.10
  17   8  -2    1.20    3.20
  17  -8  -2   -2.90    2.30
 -17  -8   2    0.20    3.00
 -17   8   1    4.20    3.60
  17   8  -1    1.60    3.00
  17  -8  -1    3.00    3.00
 -17  -8   1    3.50    3.20
  17   8   0    9.30    4.00
 -17   8   0    7.60    4.20
 -17  -8   0   12.00    4.90
  17  -8   0   10.90    4.30
 -17   8  -1    4.00    3.40
  17   8   1    6.00    3.70
  17  -8   1    2.30    3.60
 -17  -8  -1   -0.30    3.60
  17   8   2   -3.50    2.50
 -17   8  -2    0.70    2.70
 -17  -8  -2    1.40    3.90
  17  -8   2   -5.90    3.20
  17   9  -7    4.70    4.10
 -17  -9   7   -1.00    3.60
  17  -9  -7    3.70    4.30
  17   9  -6   -4.50    2.40
 -17   9   6    1.40    4.20
 -17  -9   6   -1.90    3.00
  17   9  -5   23.50    5.50
 -17   9   5   27.40    7.00
 -17  -9   5   17.00    5.50
 -17   9   4    6.10    4.30
  17   9  -4    9.70    4.40
 -17  -9   4    4.90    3.70
 -17   9   3   24.60    6.30
  17   9  -3   27.70    6.20
 -17  -9   3   24.80    6.50
 -17   9   2    8.20    4.70
  17   9  -2    9.10    4.10
  17  -9  -2    3.50    5.00
 -17  -9   2   16.20    5.40
 -17   9   1   -0.10    2.90
  17   9  -1    7.30    3.90
  17  -9  -1    5.00    3.50
 -17  -9   1    2.80    3.50
  17   9   0   -1.30    2.90
 -17   9   0    9.10    4.60
 -17  -9   0   -0.30    3.20
  17  -9   0   -0.60    2.70
  17   9   1   -0.60    3.00
 -17   9  -1    1.00    3.00
  17  -9   1   -3.20    2.60
 -17  -9  -1   -0.50    3.00
  17   9   2   -0.70    3.10
 -17   9  -2    0.30    3.10
  17  -9   2   -1.00    3.20
 -17  -9  -2   -0.30    3.20
  17  10  -6    0.80    3.90
 -17 -10   6    1.00    4.00
  17 -10  -6    1.10    4.00
 -17  10   5   30.10    7.20
  17  10  -5   32.40    6.80
 -17 -10   5   40.10    7.50
  17  10  -4   26.00    5.90
 -17  10   4   22.30    6.50
 -17 -10   4   21.60    5.80
 -17  10   3    2.60    3.60
  17  10  -3    4.60    3.40
 -17 -10   3    8.30    4.60
  17  10  -2   -0.50    2.80
 -17  10   2   -2.50    2.60
 -17 -10   2   -1.40    3.10
  17  10  -1   31.60    6.50
 -17  10   1   27.90    6.50
 -17 -10   1   32.90    7.10
 -17  10   0   35.20    7.40
  17  10   0   35.60    6.90
  17 -10   0   32.70    6.10
 -17 -10   0   29.20    7.00
  17  10   1    6.70    4.40
 -17  10  -1   -1.30    3.00
  17 -10   1    5.50    4.30
 -17 -10  -1    2.70    4.20
  17  11  -5   17.80    5.30
 -17 -11   5   17.30    5.60
  17 -11  -5   20.90    6.50
  17  11  -4   20.50    5.80
 -17 -11   4   20.20    6.20
 -17  11   3   53.09    9.30
  17  11  -3   70.39    9.40
 -17 -11   3   53.49    9.30
  17  11  -2   24.50    6.00
 -17  11   2   29.50    7.00
 -17 -11   2   23.80    6.60
 -17  11   1   14.30    5.50
  17  11  -1    6.40    4.10
 -17 -11   1   27.50    6.90
  17  11   0    2.70    3.20
 -17  11   0    0.00    3.60
 -17 -11   0    0.60    3.80
  17  12  -4    0.60    3.50
 -17 -12   4    8.40    4.40
  17 -12  -4    6.20    4.60
  17  12  -3   14.00    4.70
 -17 -12   3   15.40    5.70
  17 -12  -3    9.50    4.90
  17  12  -2    2.90    4.10
  17 -12  -2    0.20    3.70
 -17 -12   2    5.50    4.60
  17  12  -1    4.90    3.80
 -17 -12   1   -0.80    3.30
  18   0  -8   10.70    4.30
 -18   0   8    0.80    3.80
 -18   0   7    1.90    3.60
  18   0  -7   -2.30    2.00
 -18   0   6    5.30    4.20
  18   0  -6    9.70    3.80
  18   0  -5   -2.50    2.40
 -18   0   5   -2.50    2.90
 -18   0   4   21.70    5.80
  18   0  -4   19.70    4.90
  18   0  -3   -1.80    2.40
 -18   0   3    3.10    3.50
 -18   0   2   -3.30    2.30
  18   0  -2   -0.80    2.20
  18   0  -1   -1.00    2.50
 -18   0   1   -2.00    2.70
 -18   0   0   -0.60    3.50
  18   0   0   -5.40    2.40
  18   0   1    0.40    2.80
 -18   0  -1   -1.20    2.60
  18   0   2    1.10    3.30
 -18   0  -2    4.90    3.80
 -18   1   8    3.10    4.10
  18   1  -8   -0.30    2.90
 -18  -1   8   -5.40    2.80
  18  -1  -8   -1.50    2.40
  18   1  -7   -1.60    2.30
 -18   1   7    3.50    4.10
 -18  -1   7   -0.60    3.10
  18  -1  -7    0.60    2.90
 -18   1   6    1.40    3.90
  18   1  -6   -0.70    2.70
  18  -1  -6    6.30    3.60
 -18  -1   6    1.80    3.60
 -18   1   5    0.70    3.20
  18   1  -5    2.40    2.90
 -18  -1   5    4.30    3.80
  18  -1  -5    1.90    2.70
 -18   1   4    5.80    4.20
  18   1  -4    2.40    3.10
 -18  -1   4    7.20    4.00
  18  -1  -4    1.60    2.90
  18   1  -3   -2.00    2.30
 -18   1   3    0.70    3.10
 -18  -1   3   -1.40    3.20
  18  -1  -3   -2.00    2.40
  18   1  -2    6.20    3.40
 -18   1   2    3.00    3.40
 -18  -1   2    5.40    3.90
  18  -1  -2    1.80    3.00
  18   1  -1    8.90    3.90
 -18   1   1    1.70    3.50
 -18  -1   1    7.00    4.20
  18  -1  -1    8.50    3.80
  18   1   0    2.70    3.50
 -18   1   0   -0.30    2.80
  18  -1   0    0.30    3.10
 -18  -1   0   -2.90    2.40
  18   1   1    7.30    3.70
 -18   1  -1    1.10    3.00
  18  -1   1   -1.30    2.70
 -18  -1  -1    1.00    2.90
 -18   1  -2   -0.50    2.70
  18   1   2    2.70    3.40
 -18  -1  -2   -2.90    2.70
  18  -1   2   -2.80    2.90
  18   2  -8    3.50    3.60
 -18   2   8   -3.00    3.20
 -18  -2   8    7.70    4.60
  18  -2  -8   -0.80    4.00
 -18   2   7    0.30    3.60
  18   2  -7    3.50    2.90
 -18  -2   7    2.20    4.00
  18  -2  -7    0.90    2.80
 -18   2   6   69.89    9.90
  18   2  -6   55.19    7.40
  18  -2  -6   91.29    7.80
 -18  -2   6   59.59    9.20
 -18   2   5    0.80    3.40
  18   2  -5   -1.00    2.60
  18  -2  -5    2.20    2.90
 -18  -2   5    3.60    3.70
 -18   2   4   18.40    5.80
  18   2  -4    0.40    2.80
  18  -2  -4    7.60    3.50
 -18  -2   4   12.10    4.90
  18   2  -3    7.60    3.80
 -18   2   3    2.70    3.50
  18  -2  -3    9.90    3.70
 -18  -2   3    6.90    4.30
  18   2  -2   -1.80    2.30
 -18   2   2   -0.50    2.60
 -18  -2   2   -1.50    2.40
  18  -2  -2   -1.20    2.30
  18   2  -1    4.80    3.20
 -18   2   1    3.70    3.50
 -18  -2   1    3.30    3.40
  18  -2  -1    0.50    2.90
 -18   2   0    0.00    2.90
  18   2   0    3.20    3.60
 -18  -2   0    6.30    4.10
  18  -2   0    5.10    3.40
  18   2   1    8.60    4.30
 -18   2  -1   10.20    4.50
 -18  -2  -1    9.10    4.20
  18  -2   1    7.40    3.90
  18   2   2   -1.30    3.40
 -18   2  -2   -0.80    3.10
 -18  -2  -2    1.40    3.80
  18  -2   2   -4.00    3.50
 -18   3   8   17.80    5.80
  18   3  -8   24.60    5.50
 -18  -3   8   27.20    6.80
  18   3  -7   12.00    4.40
 -18   3   7   14.20    5.30
  18  -3  -7    7.00    3.80
 -18  -3   7    3.40    3.80
 -18   3   6   66.59    9.80
  18   3  -6   54.99    7.60
  18  -3  -6   68.89    7.70
 -18  -3   6   76.49   10.20
  18   3  -5    7.40    3.60
 -18   3   5    0.90    3.70
 -18  -3   5   -1.00    3.30
  18  -3  -5    2.10    2.80
  18   3  -4    3.90    3.00
 -18   3   4   12.70    5.30
 -18  -3   4   14.70    5.20
  18  -3  -4   14.90    4.20
  18   3  -3   -1.90    2.40
 -18   3   3   -1.10    2.80
 -18  -3   3    1.80    3.30
  18  -3  -3    0.10    2.30
 -18   3   2   20.70    5.80
  18   3  -2    9.80    4.00
  18  -3  -2   11.60    4.10
 -18  -3   2   22.00    5.70
  18   3  -1    2.00    2.80
 -18   3   1    0.70    3.40
  18  -3  -1   -3.10    2.40
 -18  -3   1   -3.20    2.50
  18   3   0    6.00    3.80
 -18   3   0    0.60    3.30
 -18  -3   0    6.40    4.10
  18  -3   0   11.30    4.60
 -18   3  -1   -0.60    2.80
  18   3   1   -1.50    3.00
  18  -3   1    9.10    4.60
 -18  -3  -1    0.80    3.20
  18   3   2    5.40    3.90
 -18   3  -2   14.80    4.90
 -18  -3  -2    3.70    3.70
  18  -3   2    4.80    4.30
  18   4  -8    2.30    3.90
  18   4  -7    3.40    3.20
 -18   4   7    6.30    5.10
 -18  -4   7    8.20    4.40
 -18   4   6   18.00    6.00
  18   4  -6    5.60    3.70
 -18  -4   6    4.80    4.00
  18   4  -5   -0.60    2.90
 -18   4   5    3.20    3.60
  18  -4  -5    1.10    2.60
 -18  -4   5    3.60    3.70
 -18   4   4    2.40    3.70
  18   4  -4   -2.20    2.90
 -18  -4   4    0.70    3.40
  18  -4  -4    2.30    2.70
  18   4  -3    5.10    3.30
 -18   4   3    4.50    3.80
  18  -4  -3    1.60    2.60
 -18  -4   3    1.20    3.10
  18   4  -2    4.80    3.60
 -18   4   2    1.30    3.20
 -18  -4   2    6.10    4.20
  18  -4  -2    1.40    2.90
 -18   4   1    0.50    3.10
  18   4  -1   -0.50    2.80
  18  -4  -1    3.30    3.20
 -18  -4   1   -3.10    2.70
  18   4   0    1.50    2.80
 -18   4   0    1.00    3.10
 -18  -4   0   -2.80    2.30
  18  -4   0    2.30    3.40
 -18   4  -1    3.80    3.10
  18   4   1   -0.20    2.80
  18  -4   1    0.20    3.50
 -18  -4  -1   -2.50    2.40
 -18   4  -2    3.70    3.50
  18   4   2   14.10    5.10
 -18  -4  -2    4.80    3.60
  18  -4   2   -0.30    3.50
 -18   5   7   34.80    7.80
  18   5  -7   24.00    5.90
 -18  -5   7   26.00    6.60
 -18   5   6   19.90    6.20
  18   5  -6   20.90    5.30
 -18  -5   6   29.60    6.80
 -18   5   5   35.50    7.50
  18   5  -5   27.70    5.90
 -18  -5   5   32.40    7.00
  18  -5  -5   39.10    5.70
  18   5  -4   -0.30    2.80
 -18   5   4   -3.50    2.60
  18  -5  -4    1.60    2.70
 -18  -5   4   -2.60    2.80
 -18   5   3   26.40    6.70
  18   5  -3   22.90    5.40
 -18  -5   3   36.70    7.40
  18  -5  -3   22.30    4.90
 -18   5   2   -0.40    3.00
  18   5  -2    0.70    2.90
 -18  -5   2    3.00    3.30
  18  -5  -2    0.30    2.30
  18   5  -1    6.50    3.70
 -18   5   1    8.10    4.40
  18  -5  -1    4.60    3.50
 -18  -5   1    2.50    3.50
 -18   5   0   -0.30    2.80
  18   5   0   -0.40    2.60
  18  -5   0   -2.70    3.20
 -18  -5   0    5.60    3.70
  18   5   1   15.80    5.40
 -18   5  -1    8.50    4.30
 -18  -5  -1    1.10    3.00
  18  -5   1   17.50    5.10
 -18   5  -2   -0.30    2.40
  18   5   2    3.20    3.50
 -18  -5  -2    1.00    3.60
  18  -5   2   -7.30    2.90
 -18   6   7   -2.70    3.40
  18   6  -7    1.70    3.30
 -18  -6   7    4.10    4.10
 -18   6   6   21.70    6.50
  18   6  -6   29.90    6.00
 -18  -6   6   21.00    6.00
  18   6  -5    0.30    2.90
 -18   6   5    0.80    3.60
 -18  -6   5    1.80    4.20
  18   6  -4    6.00    4.00
 -18   6   4    0.90    3.70
  18  -6  -4    3.40    2.90
 -18  -6   4    1.80    3.50
  18   6  -3   27.30    6.10
 -18   6   3   31.10    7.20
  18  -6  -3   24.30    4.70
 -18  -6   3   15.10    5.30
  18   6  -2    6.50    3.60
 -18   6   2    0.30    3.40
  18  -6  -2    1.90    3.20
 -18  -6   2    9.60    4.50
 -18   6   1    2.40    3.60
  18   6  -1    5.40    3.60
  18  -6  -1    5.10    3.10
 -18  -6   1    0.90    3.50
  18   6   0    1.30    3.30
 -18   6   0    8.00    4.40
 -18  -6   0    1.70    3.20
  18  -6   0    2.10    3.70
  18   6   1   22.60    5.80
 -18   6  -1   18.70    5.60
  18  -6   1    4.20    3.90
 -18  -6  -1   14.00    5.30
  18   7  -6    5.80    3.90
 -18   7   6    1.90    4.00
 -18  -7   6   -1.60    3.40
 -18   7   5    8.90    4.60
  18   7  -5    2.10    3.30
 -18  -7   5   -3.20    2.70
 -18   7   4    5.00    4.40
  18   7  -4    3.40    3.80
 -18  -7   4    8.70    4.50
 -18   7   3    4.30    4.20
  18   7  -3   12.70    4.80
 -18  -7   3    7.70    4.60
  18  -7  -3    1.70    3.00
 -18   7   2   -6.20    2.30
  18   7  -2    5.70    4.10
 -18  -7   2   -6.90    2.20
  18  -7  -2   -0.30    2.90
  18   7  -1    6.20    3.90
 -18   7   1    7.20    4.40
  18  -7  -1    9.40    4.20
 -18  -7   1   -1.10    3.10
  18   7   0    5.70    4.00
 -18   7   0   -1.70    3.10
  18  -7   0   -0.90    3.40
 -18  -7   0   11.90    5.00
 -18   7  -1   -2.60    2.70
  18   7   1    2.30    3.50
 -18  -7  -1    0.40    3.40
  18  -7   1    1.00    3.20
 -18   8   6   11.10    5.50
  18   8  -6   11.60    5.10
 -18  -8   6    8.00    4.60
 -18   8   5   -0.80    3.50
  18   8  -5    4.60    4.10
 -18  -8   5    1.50    4.10
  18   8  -4   -4.10    2.20
 -18   8   4    0.90    3.60
 -18  -8   4    3.50    3.70
 -18   8   3    1.60    3.40
  18   8  -3   -1.50    3.00
 -18  -8   3   -0.30    3.30
 -18   8   2    1.50    3.80
  18   8  -2    4.40    3.50
  18  -8  -2    6.40    3.90
 -18  -8   2    0.30    3.60
 -18   8   1    8.30    4.10
  18   8  -1    2.90    3.40
 -18  -8   1    1.10    3.50
  18  -8  -1    0.70    3.20
  18   8   0    6.20    4.30
 -18   8   0    2.70    3.40
  18  -8   0    7.40    4.10
 -18  -8   0    2.50    3.70
  18   9  -5   31.60    6.70
 -18   9   5   39.30    8.40
 -18  -9   5   22.60    6.30
 -18   9   4   26.90    7.30
  18   9  -4   14.40    5.00
 -18  -9   4   25.00    6.60
 -18   9   3    5.10    4.90
  18   9  -3    3.50    3.30
 -18  -9   3   -1.80    3.00
  18   9  -2   25.90    6.10
 -18   9   2   38.50    7.90
 -18  -9   2   40.10    8.10
  18   9  -1   -2.70    3.00
 -18   9   1    1.20    3.50
 -18  -9   1   -2.20    3.20
  18  -9  -1   -0.80    3.30
 -18  10   4   -0.80    3.40
  18  10  -4    0.50    3.50
 -18 -10   4   -2.80    2.80
  18  10  -3    3.60    4.00
 -18  10   3   -1.10    3.30
 -18 -10   3   -0.90    3.40
  18  10  -2    8.40    4.80
 -18  10   2    2.00    4.20
 -18 -10   2    0.10    3.60
 -19   0   6    9.30    5.00
  19   0  -6    9.80    4.00
 -19   0   5   -1.80    3.20
  19   0  -5    1.90    2.80
 -19   0   4   19.90    6.20
  19   0  -4   19.70    5.00
 -19   0   3   -0.90    2.90
  19   0  -3    0.00    2.50
 -19   0   2    2.40    3.70
  19   0  -2    2.60    3.40
 -19   0   1    2.20    3.10
  19   0  -1   -2.10    3.00
  19   0   0    5.20    3.90
 -19   0   0   -0.20    3.00
  19   0   1    2.40    3.30
  19   1  -6    5.30    3.60
 -19   1   6    3.60    4.20
  19  -1  -6    9.20    4.10
 -19  -1   6    3.10    3.90
  19   1  -5    4.10    3.80
 -19   1   5   -0.90    3.60
  19  -1  -5    1.40    3.00
 -19  -1   5   -0.10    3.70
 -19   1   4    0.30    3.60
  19   1  -4    3.50    3.00
 -19  -1   4   -0.40    3.10
  19  -1  -4    0.70    3.00
  19   1  -3   11.80    4.20
 -19   1   3   13.60    5.50
  19  -1  -3    7.70    3.60
 -19  -1   3    9.40    4.80
 -19   1   2    4.50    3.80
  19   1  -2   13.20    4.70
 -19  -1   2   -1.20    3.30
  19  -1  -2    2.70    3.30
  19   1  -1   -0.80    3.00
 -19   1   1    4.10    3.70
 -19  -1   1    1.40    3.50
  19  -1  -1   -0.70    2.60
  19   1   0    7.60    4.30
 -19   1   0    3.50    3.40
 -19  -1   0    2.60    3.50
  19  -1   0    4.30    3.50
 -19   2   6    0.00    3.80
  19   2  -6    2.20    3.50
 -19  -2   6   -1.20    3.40
  19  -2  -6    0.60    2.30
 -19   2   5    4.00    4.20
  19   2  -5    4.50    3.50
 -19  -2   5   -4.00    2.80
  19  -2  -5    1.50    2.60
 -19   2   4    1.00    3.40
  19   2  -4    0.80    2.70
 -19  -2   4   -1.50    3.20
  19  -2  -4    0.90    3.10
 -19   2   3   -2.30    3.20
  19   2  -3   -4.20    1.90
 -19  -2   3   -2.40    2.70
  19  -2  -3    2.60    2.90
  19   2  -2    9.90    4.20
 -19   2   2    1.60    3.40
  19  -2  -2    8.20    4.00
 -19  -2   2    9.90    4.70
 -19   2   1   -0.10    3.00
  19   2  -1    5.20    3.80
  19  -2  -1    2.70    3.20
 -19  -2   1    1.10    3.40
  19   2   0    1.00    3.00
 -19   2   0    0.50    3.20
  19  -2   0   -1.50    2.60
 -19  -2   0    2.00    3.70
 -19   3   6   10.00    5.30
  19   3  -6   23.80    5.70
  19  -3  -6   22.20    5.00
 -19  -3   6   21.10    6.20
 -19   3   5    4.50    4.00
  19   3  -5    0.10    3.00
  19  -3  -5    4.20    3.10
 -19  -3   5    9.50    4.90
  19   3  -4    5.30    4.10
 -19   3   4    6.40    4.50
 -19  -3   4    7.20    4.90
  19  -3  -4   12.00    3.80
  19   3  -3   -1.00    2.70
 -19   3   3   -2.30    2.70
 -19  -3   3    3.00    3.50
  19  -3  -3   -3.00    2.70
 -19   3   2    1.40    3.70
  19   3  -2   -1.10    2.60
  19  -3  -2    2.80    3.00
 -19  -3   2    4.60    4.00
 -19   3   1   -3.20    2.70
  19   3  -1    0.80    2.60
 -19  -3   1   -1.40    2.80
  19  -3  -1   -0.50    2.60
  19   3   0    0.60    3.30
 -19   3   0    5.30    4.00
 -19  -3   0    4.80    3.90
  19  -3   0    3.10    3.80
 -19   4   6   -1.40    3.80
  19   4  -6    2.80    3.50
 -19  -4   6   -1.80    3.20
  19   4  -5   -1.00    3.20
 -19   4   5   16.40    5.90
 -19  -4   5    1.60    3.80
  19  -4  -5    3.30    3.00
  19   4  -4    6.90    3.90
 -19   4   4    7.00    4.60
 -19  -4   4    0.30    3.70
  19  -4  -4    6.90    3.50
  19   4  -3    0.80    3.20
 -19   4   3    5.70    3.80
 -19  -4   3    2.00    3.70
  19  -4  -3    3.70    3.30
  19   4  -2   25.70    5.80
 -19   4   2   19.60    6.20
 -19  -4   2   25.90    6.50
  19  -4  -2   22.00    4.90
  19   4  -1    6.10    3.90
 -19   4   1    5.20    3.90
 -19  -4   1    4.40    4.30
  19  -4  -1    6.40    3.70
 -19   4   0    9.10    4.20
  19   4   0    5.90    4.30
 -19  -4   0    6.10    4.20
  19  -4   0    8.70    4.20
  19   5  -5   18.30    5.00
 -19   5   5   23.90    6.90
 -19  -5   5   34.50    8.00
 -19   5   4   18.40    6.00
  19   5  -4   36.80    7.10
  19  -5  -4   31.20    5.70
 -19  -5   4   29.80    7.10
 -19   5   3    0.20    3.30
  19   5  -3   -1.50    2.40
 -19  -5   3    0.60    3.50
  19  -5  -3    0.90    2.90
  19   5  -2    0.10    3.00
 -19   5   2    0.80    3.60
 -19  -5   2   -3.30    2.90
  19  -5  -2   -0.90    2.70
  19   5  -1    9.80    4.40
 -19   5   1    2.80    3.80
  19  -5  -1    8.50    4.00
 -19  -5   1    5.30    4.20
  19   6  -5   10.90    4.40
 -19   6   5    2.70    4.40
 -19  -6   5    5.90    4.20
 -19   6   4   12.40    5.80
  19   6  -4   13.10    4.90
 -19  -6   4   15.80    5.60
 -19   6   3    7.20    4.60
  19   6  -3    3.20    3.30
 -19  -6   3   -1.60    3.20
  19  -6  -3    1.20    3.00
  19   6  -2    2.90    3.50
 -19   6   2    0.80    3.70
  19  -6  -2    0.70    2.90
 -19  -6   2    2.30    3.60
  19   6  -1    6.10    3.70
 -19   6   1    2.70    3.60
 -19  -6   1    3.70    4.10
  19  -6  -1    5.90    4.20
  19   7  -4    4.30    4.00
  19   7  -3   22.60    5.90
 -19   7   3   35.70    8.10
 -19  -7   3   28.40    7.10
  19   7  -2    6.70    3.90
  19  -7  -2   -0.60    3.20

_computing_structure_solution     'SHELXT 2014/4 (Sheldrick, 2014)'
;
_shelx_hkl_checksum                85628
_olex2_submission_special_instructions  'No special instructions were received'
